McPAT (version 0.8 of Aug, 2010) is computing the target processor...


McPAT (version 0.8 of Aug, 2010) results  (current print level is 5)
*****************************************************************************************
  Technology 40 nm
  Interconnect metal projection = conservative interconnect technology projection
  Target Clock Rate (MHz) 2000

*****************************************************************************************
  System:
    Area = 27.2411 mm^2
    Peak Dynamic Power = 10.7909 W
    Subthreshold Leakage Power = 9.28566 W
    Gate Leakage Power = 0.330607 W
    Runtime Dynamic Power = 110.437 W
    Runtime Dynamic Energy = 3.539 J
    Total Runtime Energy = 3.84716 J

      Core 0:
        Area = 14.2041 mm^2
        Peak Dynamic Power = 10.6481 W
        Subthreshold Leakage Power = 4.9452 W
        Gate Leakage Power = 0.219718 W
        Runtime Dynamic Power = 110.412 W
        Runtime Dynamic Energy = 3.5382 J
        Total Runtime Energy = 3.70371 J

          Instruction Fetch Unit:
            Area = 1.61048 mm^2
            Peak Dynamic Power = 1.36799 W
            Subthreshold Leakage Power = 0.226901 W
            Gate Leakage Power = 0.00533246 W
            Runtime Dynamic Power = 0.216203 W
            Runtime Dynamic Energy = 0.00692833 J
            Total Runtime Energy = 0.0143704 J

              Instruction Cache:
                Area = 0.970326 mm^2
                Peak Dynamic Power = 0.064624 W
                Subthreshold Leakage Power = 0.0678485 W
                Gate Leakage Power = 0.00157419 W
                Runtime Dynamic Power = 0.0197451 W
                Runtime Dynamic Energy = 0.000632741 J
                Total Runtime Energy = 0.00285742 J

                  Data and Tag Arrays:
                    Area = 0.25887 mm^2
                    Peak Dynamic Power = 0 W
                    Subthreshold Leakage Power = 0.0622886 W
                    Gate Leakage Power = 0.00129234 W
                    Runtime Dynamic Power = 0.019745 W
                    Runtime Dynamic Energy = 0.00063274 J
                    Total Runtime Energy = 0.00267022 J

                  Miss Buffer:
                    Area = 0.262959 mm^2
                    Peak Dynamic Power = 0.0226903 W
                    Subthreshold Leakage Power = 0.00194663 W
                    Gate Leakage Power = 9.86469e-05 W
                    Runtime Dynamic Power = 9.40937e-09 W
                    Runtime Dynamic Energy = 3.01528e-10 J
                    Total Runtime Energy = 6.55421e-05 J

                  Fill Buffer:
                    Area = 0.224249 mm^2
                    Peak Dynamic Power = 0.0209669 W
                    Subthreshold Leakage Power = 0.00180662 W
                    Gate Leakage Power = 9.16038e-05 W
                    Runtime Dynamic Power = 8.65645e-09 W
                    Runtime Dynamic Energy = 2.774e-10 J
                    Total Runtime Energy = 6.08298e-05 J

                  Prefetch Buffer:
                    Area = 0.224249 mm^2
                    Peak Dynamic Power = 0.0209669 W
                    Subthreshold Leakage Power = 0.00180662 W
                    Gate Leakage Power = 9.16038e-05 W
                    Runtime Dynamic Power = 8.65645e-09 W
                    Runtime Dynamic Energy = 2.774e-10 J
                    Total Runtime Energy = 6.08298e-05 J

              Branch Target Buffer:
                Area = 0.229775 mm^2
                Peak Dynamic Power = 0.0323054 W
                Subthreshold Leakage Power = 0.0389956 W
                Gate Leakage Power = 0.000887392 W
                Runtime Dynamic Power = 0.00481451 W
                Runtime Dynamic Energy = 0.000154283 J
                Total Runtime Energy = 0.00143235 J

              Branch Predictor:
                Area = 0.364134 mm^2
                Peak Dynamic Power = 0 W
                Subthreshold Leakage Power = 0.112326 W
                Gate Leakage Power = 0.00263182 W
                Runtime Dynamic Power = 0.0676931 W
                Runtime Dynamic Energy = 0.00216926 J
                Total Runtime Energy = 0.00585313 J

                  Global Predictor:
                    Area = 0.129022 mm^2
                    Peak Dynamic Power = 0 W
                    Subthreshold Leakage Power = 0.0419609 W
                    Gate Leakage Power = 0.000962899 W
                    Runtime Dynamic Power = 0.0247675 W
                    Runtime Dynamic Energy = 0.000793688 J
                    Total Runtime Energy = 0.0021692 J

                  Local Predictor, Level 1:
                    Area = 0.0544156 mm^2
                    Peak Dynamic Power = 0 W
                    Subthreshold Leakage Power = 0.0159313 W
                    Gate Leakage Power = 0.000389269 W
                    Runtime Dynamic Power = 0.0141982 W
                    Runtime Dynamic Energy = 0.000454989 J
                    Total Runtime Energy = 0.000977992 J

                  Local Predictor, Level 2:
                    Area = 0.0363446 mm^2
                    Peak Dynamic Power = 0 W
                    Subthreshold Leakage Power = 0.0107581 W
                    Gate Leakage Power = 0.000267545 W
                    Runtime Dynamic Power = 0.00394668 W
                    Runtime Dynamic Energy = 0.000126473 J
                    Total Runtime Energy = 0.000479794 J

                  Predictor Chooser:
                    Area = 0.129022 mm^2
                    Peak Dynamic Power = 0 W
                    Subthreshold Leakage Power = 0.0419609 W
                    Gate Leakage Power = 0.000962899 W
                    Runtime Dynamic Power = 0.0247675 W
                    Runtime Dynamic Energy = 0.000793688 J
                    Total Runtime Energy = 0.0021692 J

                  RAS:
                    Area = 0.0153301 mm^2
                    Peak Dynamic Power = 0 W
                    Subthreshold Leakage Power = 0.0017144 W
                    Gate Leakage Power = 4.92127e-05 W
                    Runtime Dynamic Power = 1.31412e-05 W
                    Runtime Dynamic Energy = 4.21115e-07 J
                    Total Runtime Energy = 5.69369e-05 J

              Instruction Buffer:
                Area = 0.0215393 mm^2
                Peak Dynamic Power = 0.209215 W
                Subthreshold Leakage Power = 0.00234771 W
                Gate Leakage Power = 5.98161e-05 W
                Runtime Dynamic Power = 0.0204022 W
                Runtime Dynamic Energy = 0.000653797 J
                Total Runtime Energy = 0.000730948 J

              Instruction Opcode Decoder:
                Area = 0.0115958 mm^2
                Peak Dynamic Power = 0.354159 W
                Subthreshold Leakage Power = 0.00253168 W
                Gate Leakage Power = 8.37387e-05 W
                Runtime Dynamic Power = 0.0345368 W
                Runtime Dynamic Energy = 0.00110675 J
                Total Runtime Energy = 0.00119056 J

              Instruction Operand Decoder:
                Area = 0.00150936 mm^2
                Peak Dynamic Power = 0.353523 W
                Subthreshold Leakage Power = 0.00032028 W
                Gate Leakage Power = 1.17596e-05 W
                Runtime Dynamic Power = 0.0344747 W
                Runtime Dynamic Energy = 0.00110476 J
                Total Runtime Energy = 0.0011154 J

              Instruction Microcode Decoder:
                Area = 0.0115958 mm^2
                Peak Dynamic Power = 0.354159 W
                Subthreshold Leakage Power = 0.00253168 W
                Gate Leakage Power = 8.37387e-05 W
                Runtime Dynamic Power = 0.0345368 W
                Runtime Dynamic Energy = 0.00110675 J
                Total Runtime Energy = 0.00119056 J

          Load/Store Unit:
            Area = 1.45855 mm^2
            Peak Dynamic Power = 0.208566 W
            Subthreshold Leakage Power = 0.158229 W
            Gate Leakage Power = 0.00395834 W
            Runtime Dynamic Power = 0.0657366 W
            Runtime Dynamic Energy = 0.00210656 J
            Total Runtime Energy = 0.00730394 J

              Data Cache:
                Area = 1.33684 mm^2
                Peak Dynamic Power = 0.109285 W
                Subthreshold Leakage Power = 0.141928 W
                Gate Leakage Power = 0.00336344 W
                Runtime Dynamic Power = 0.0507007 W
                Runtime Dynamic Energy = 0.00162473 J
                Total Runtime Energy = 0.00628067 J

                  Data and Tag Arrays:
                    Area = 0.372569 mm^2
                    Peak Dynamic Power = 0 W
                    Subthreshold Leakage Power = 0.123745 W
                    Gate Leakage Power = 0.00251158 W
                    Runtime Dynamic Power = 0.0458954 W
                    Runtime Dynamic Energy = 0.00147074 J
                    Total Runtime Energy = 0.0055167 J

                  Miss Buffer:
                    Area = 0.270528 mm^2
                    Peak Dynamic Power = 0.0288322 W
                    Subthreshold Leakage Power = 0.0048041 W
                    Gate Leakage Power = 0.000224896 W
                    Runtime Dynamic Power = 0.0016919 W
                    Runtime Dynamic Energy = 5.42177e-05 J
                    Total Runtime Energy = 0.000215374 J

                  Fill Buffer:
                    Area = 0.231248 mm^2
                    Peak Dynamic Power = 0.0268178 W
                    Subthreshold Leakage Power = 0.00445956 W
                    Gate Leakage Power = 0.000208987 W
                    Runtime Dynamic Power = 0.00155671 W
                    Runtime Dynamic Energy = 4.98854e-05 J
                    Total Runtime Energy = 0.000199491 J

                  Prefetch Buffer:
                    Area = 0.231248 mm^2
                    Peak Dynamic Power = 0.0268178 W
                    Subthreshold Leakage Power = 0.00445956 W
                    Gate Leakage Power = 0.000208987 W
                    Runtime Dynamic Power = 2.58326e-05 W
                    Runtime Dynamic Energy = 8.2782e-07 J
                    Total Runtime Energy = 0.000150434 J

                  Writeback Buffer:
                    Area = 0.231248 mm^2
                    Peak Dynamic Power = 0.0268178 W
                    Subthreshold Leakage Power = 0.00445956 W
                    Gate Leakage Power = 0.000208987 W
                    Runtime Dynamic Power = 0.00153087 W
                    Runtime Dynamic Energy = 4.90576e-05 J
                    Total Runtime Energy = 0.000198664 J

              Load Queue:
                Area = 0.0608565 mm^2
                Peak Dynamic Power = 0.0496405 W
                Subthreshold Leakage Power = 0.00815046 W
                Gate Leakage Power = 0.000297452 W
                Runtime Dynamic Power = 0.00501198 W
                Runtime Dynamic Energy = 0.000160611 J
                Total Runtime Energy = 0.000431329 J

              Store Queue:
                Area = 0.0608565 mm^2
                Peak Dynamic Power = 0.0496405 W
                Subthreshold Leakage Power = 0.00815046 W
                Gate Leakage Power = 0.000297452 W
                Runtime Dynamic Power = 0.010024 W
                Runtime Dynamic Energy = 0.000321223 J
                Total Runtime Energy = 0.00059194 J

          Memory Management Unit:
            Area = 0.331371 mm^2
            Peak Dynamic Power = 0.374721 W
            Subthreshold Leakage Power = 0.097099 W
            Gate Leakage Power = 0.00441089 W
            Runtime Dynamic Power = 0.0485311 W
            Runtime Dynamic Energy = 0.0015552 J
            Total Runtime Energy = 0.00480814 J

              Instruction TLB:
                Area = 0.131789 mm^2
                Peak Dynamic Power = 0.177834 W
                Subthreshold Leakage Power = 0.0446376 W
                Gate Leakage Power = 0.00203139 W
                Runtime Dynamic Power = 0.028861 W
                Runtime Dynamic Energy = 0.000924866 J
                Total Runtime Energy = 0.0024204 J

              Data TLB:
                Area = 0.199582 mm^2
                Peak Dynamic Power = 0.196887 W
                Subthreshold Leakage Power = 0.0524614 W
                Gate Leakage Power = 0.00237949 W
                Runtime Dynamic Power = 0.0196701 W
                Runtime Dynamic Energy = 0.000630337 J
                Total Runtime Energy = 0.00238774 J

          Execution Unit:
            Area = 4.34618 mm^2
            Peak Dynamic Power = 4.38702 W
            Subthreshold Leakage Power = 1.21725 W
            Gate Leakage Power = 0.0508622 W
            Runtime Dynamic Power = 0.835911 W
            Runtime Dynamic Energy = 0.0267872 J
            Total Runtime Energy = 0.0674245 J

              Int Bypass Data:
                Area = 0.00243032 mm^2
                Peak Dynamic Power = 0 W
                Subthreshold Leakage Power = 0 W
                Gate Leakage Power = 0 W
                Runtime Dynamic Power = 0.050479 W
                Runtime Dynamic Energy = 0.00161762 J
                Total Runtime Energy = 0.00161762 J

              Int Bypass Tag:
                Area = 0.000648315 mm^2
                Peak Dynamic Power = 0 W
                Subthreshold Leakage Power = 0 W
                Gate Leakage Power = 0 W
                Runtime Dynamic Power = 0.0134658 W
                Runtime Dynamic Energy = 0.000431519 J
                Total Runtime Energy = 0.000431519 J

              Mul Bypass Data:
                Area = 0.00323361 mm^2
                Peak Dynamic Power = 0 W
                Subthreshold Leakage Power = 0 W
                Gate Leakage Power = 0 W
                Runtime Dynamic Power = 0 W
                Runtime Dynamic Energy = 0 J
                Total Runtime Energy = 0 J

              Mul Bypass Tag:
                Area = 0.000748726 mm^2
                Peak Dynamic Power = 0 W
                Subthreshold Leakage Power = 0 W
                Gate Leakage Power = 0 W
                Runtime Dynamic Power = 0 W
                Runtime Dynamic Energy = 0 J
                Total Runtime Energy = 0 J

              FP Bypass Data:
                Area = 0.00382937 mm^2
                Peak Dynamic Power = 0 W
                Subthreshold Leakage Power = 0 W
                Gate Leakage Power = 0 W
                Runtime Dynamic Power = 0 W
                Runtime Dynamic Energy = 0 J
                Total Runtime Energy = 0 J

              FP Bypass Tag:
                Area = 0.000859143 mm^2
                Peak Dynamic Power = 0 W
                Subthreshold Leakage Power = 0 W
                Gate Leakage Power = 0 W
                Runtime Dynamic Power = 0 W
                Runtime Dynamic Energy = 0 J
                Total Runtime Energy = 0 J

              Register File Unit:
                Area = 0.195532 mm^2
                Peak Dynamic Power = 1.02517 W
                Subthreshold Leakage Power = 0.0212235 W
                Gate Leakage Power = 0.000562443 W
                Runtime Dynamic Power = 0.0410215 W
                Runtime Dynamic Energy = 0.00131455 J
                Total Runtime Energy = 0.00201269 J

                  Integer Register File:
                    Area = 0.130355 mm^2
                    Peak Dynamic Power = 1.00399 W
                    Subthreshold Leakage Power = 0.0106117 W
                    Gate Leakage Power = 0.000281221 W
                    Runtime Dynamic Power = 0.0410215 W
                    Runtime Dynamic Energy = 0.00131455 J
                    Total Runtime Energy = 0.00166362 J

                  FP Register File:
                    Area = 0.0651774 mm^2
                    Peak Dynamic Power = 0.021183 W
                    Subthreshold Leakage Power = 0.0106117 W
                    Gate Leakage Power = 0.000281221 W
                    Runtime Dynamic Power = 0 W
                    Runtime Dynamic Energy = 0 J
                    Total Runtime Energy = 0.00034907 J

              Instruction Scheduler:
                Area = 1.95138 mm^2
                Peak Dynamic Power = 1.87107 W
                Subthreshold Leakage Power = 0.0217879 W
                Gate Leakage Power = 0.000602413 W
                Runtime Dynamic Power = 0.232463 W
                Runtime Dynamic Energy = 0.00744939 J
                Total Runtime Energy = 0.0081669 J

                  Integer Instruction Window:
                    Area = 0.363343 mm^2
                    Peak Dynamic Power = 0.462097 W
                    Subthreshold Leakage Power = 0 W
                    Gate Leakage Power = 0 W
                    Runtime Dynamic Power = 0.0299025 W
                    Runtime Dynamic Energy = 0.000958241 J
                    Total Runtime Energy = 0.000958241 J

                  FP Instruction Window:
                    Area = 0.0387099 mm^2
                    Peak Dynamic Power = 0.0287049 W
                    Subthreshold Leakage Power = 0 W
                    Gate Leakage Power = 0 W
                    Runtime Dynamic Power = 0 W
                    Runtime Dynamic Energy = 0 J
                    Total Runtime Energy = 0 J

                  Reorder Buffer:
                    Area = 1.54933 mm^2
                    Peak Dynamic Power = 1.38027 W
                    Subthreshold Leakage Power = 0.0217879 W
                    Gate Leakage Power = 0.000602413 W
                    Runtime Dynamic Power = 0.20256 W
                    Runtime Dynamic Energy = 0.00649115 J
                    Total Runtime Energy = 0.00720866 J

              Integer ALU(s):
                Area = 0.138846 mm^2
                Peak Dynamic Power = 0.379892 W
                Subthreshold Leakage Power = 0.201977 W
                Gate Leakage Power = 0.00854828 W
                Runtime Dynamic Power = 0.176173 W
                Runtime Dynamic Energy = 0.00564556 J
                Total Runtime Energy = 0.0123919 J

              Floating Point Unit(s):
                Area = 1.8404 mm^2
                Peak Dynamic Power = 0.666531 W
                Subthreshold Leakage Power = 0.669296 W
                Gate Leakage Power = 0.0283266 W
                Runtime Dynamic Power = 0.193385 W
                Runtime Dynamic Energy = 0.00619713 J
                Total Runtime Energy = 0.0285528 J

              Multiply/Divide Unit(s):
                Area = 0.20827 mm^2
                Peak Dynamic Power = 0.444354 W
                Subthreshold Leakage Power = 0.302965 W
                Gate Leakage Power = 0.0128224 W
                Runtime Dynamic Power = 0.128924 W
                Runtime Dynamic Energy = 0.00413142 J
                Total Runtime Energy = 0.014251 J

          Undifferentiated Core:
            Area = 3.88668 mm^2
            Peak Dynamic Power = 0 W
            Subthreshold Leakage Power = 2.82694 W
            Gate Leakage Power = 0.119645 W
            Runtime Dynamic Power = 0 W
            Runtime Dynamic Energy = 0 J
            Total Runtime Energy = 0.0944246 J

          Rename Unit:
            Area = 2.2017 mm^2
            Peak Dynamic Power = 4.30975 W
            Subthreshold Leakage Power = 0.116134 W
            Gate Leakage Power = 0.00327432 W
            Runtime Dynamic Power = 107.961 W
            Runtime Dynamic Energy = 3.45965 J
            Total Runtime Energy = 3.46348 J

              Int Front RAT:
                Area = 1.42712 mm^2
                Peak Dynamic Power = 1.97918 W
                Subthreshold Leakage Power = 0.0262301 W
                Gate Leakage Power = 0.00063006 W
                Runtime Dynamic Power = 0.643395 W
                Runtime Dynamic Energy = 0.0206179 J
                Total Runtime Energy = 0.0214787 J

              FP Front RAT:
                Area = 0.196134 mm^2
                Peak Dynamic Power = 0.462392 W
                Subthreshold Leakage Power = 0.0164236 W
                Gate Leakage Power = 0.00040475 W
                Runtime Dynamic Power = 0 W
                Runtime Dynamic Energy = 0 J
                Total Runtime Energy = 0.000539274 J

              Integer Free List:
                Area = 0.39483 mm^2
                Peak Dynamic Power = 0.0897328 W
                Subthreshold Leakage Power = 0.00699427 W
                Gate Leakage Power = 0.000164683 W
                Runtime Dynamic Power = 0.0437695 W
                Runtime Dynamic Energy = 0.00140262 J
                Total Runtime Energy = 0.00163203 J

              Int Retire RAT:
                Area = 0.0712819 mm^2
                Peak Dynamic Power = 0.0350735 W
                Subthreshold Leakage Power = 0.00181796 W
                Gate Leakage Power = 6.30899e-05 W
                Runtime Dynamic Power = 0.00520965 W
                Runtime Dynamic Energy = 0.000166946 J
                Total Runtime Energy = 0.000227225 J

              FP Retire RAT:
                Area = 0.00751656 mm^2
                Peak Dynamic Power = 0.00475521 W
                Subthreshold Leakage Power = 0.000709488 W
                Gate Leakage Power = 1.94961e-05 W
                Runtime Dynamic Power = 0 W
                Runtime Dynamic Energy = 0 J
                Total Runtime Energy = 2.33607e-05 J

              FP Free List:
                Area = 0.104811 mm^2
                Peak Dynamic Power = 0.0583279 W
                Subthreshold Leakage Power = 0.00389602 W
                Gate Leakage Power = 8.57288e-05 W
                Runtime Dynamic Power = 0 W
                Runtime Dynamic Energy = 0 J
                Total Runtime Energy = 0.000127597 J

              Instruction Dependency Check?:
                Area = 0 mm^2
                Peak Dynamic Power = 0.840145 W
                Subthreshold Leakage Power = 0.0300312 W
                Gate Leakage Power = 0.000953258 W
                Runtime Dynamic Power = 107.268 W
                Runtime Dynamic Energy = 3.43747 J
                Total Runtime Energy = 3.43846 J

              FP Dependency Check?:
                Area = 0 mm^2
                Peak Dynamic Power = 0.840145 W
                Subthreshold Leakage Power = 0.0300312 W
                Gate Leakage Power = 0.000953258 W
                Runtime Dynamic Power = 0 W
                Runtime Dynamic Energy = 0 J
                Total Runtime Energy = 0.000992911 J

          Pipeline?:
            Area = 0.36911 mm^2
            Peak Dynamic Power = 0 W
            Subthreshold Leakage Power = 0.302654 W
            Gate Leakage Power = 0.0322355 W
            Runtime Dynamic Power = 1.28465 W
            Runtime Dynamic Energy = 0.0411672 J
            Total Runtime Energy = 0.0518989 J

      L2 Cache:
        Area = 13.037 mm^2
        Peak Dynamic Power = 0.142841 W
        Subthreshold Leakage Power = 4.34046 W
        Gate Leakage Power = 0.110888 W
        Runtime Dynamic Power = 0.0250471 W
        Runtime Dynamic Energy = 0.000802646 J
        Total Runtime Energy = 0.143448 J

          Data and Tag Arrays:
            Area = 12.0488 mm^2
            Peak Dynamic Power = 0 W
            Subthreshold Leakage Power = 4.31532 W
            Gate Leakage Power = 0.109824 W
            Runtime Dynamic Power = 0.0245068 W
            Runtime Dynamic Energy = 0.000785333 J
            Total Runtime Energy = 0.142591 J

          Miss Buffer:
            Area = 0.281957 mm^2
            Peak Dynamic Power = 0.0379821 W
            Subthreshold Leakage Power = 0.00670028 W
            Gate Leakage Power = 0.000283174 W
            Runtime Dynamic Power = 0.00019183 W
            Runtime Dynamic Energy = 6.14729e-06 J
            Total Runtime Energy = 0.000229936 J

          Fill Buffer:
            Area = 0.235423 mm^2
            Peak Dynamic Power = 0.0349529 W
            Subthreshold Leakage Power = 0.00614777 W
            Gate Leakage Power = 0.000260358 W
            Runtime Dynamic Power = 0.000174206 W
            Runtime Dynamic Energy = 5.58253e-06 J
            Total Runtime Energy = 0.000210934 J

          Prefetch Buffer:
            Area = 0.235423 mm^2
            Peak Dynamic Power = 0.0349529 W
            Subthreshold Leakage Power = 0.00614777 W
            Gate Leakage Power = 0.000260358 W
            Runtime Dynamic Power = 2.11172e-05 W
            Runtime Dynamic Energy = 6.76713e-07 J
            Total Runtime Energy = 0.000206028 J

          Writeback Buffer:
            Area = 0.235423 mm^2
            Peak Dynamic Power = 0.0349529 W
            Subthreshold Leakage Power = 0.00614777 W
            Gate Leakage Power = 0.000260358 W
            Runtime Dynamic Power = 0.000153089 W
            Runtime Dynamic Energy = 4.90582e-06 J
            Total Runtime Energy = 0.000210258 J
