McPAT (version 0.8 of Aug, 2010) is computing the target processor...
