McPAT (version 0.8 of Aug, 2010) is computing the target processor...


McPAT (version 0.8 of Aug, 2010) results  (current print level is 5)
*****************************************************************************************
  Technology 40 nm
  Interconnect metal projection = conservative interconnect technology projection
  Target Clock Rate (MHz) 2000

*****************************************************************************************
  System:
    Area = 27.2411 mm^2
    Peak Dynamic Power = 10.7909 W
    Subthreshold Leakage Power = 9.28566 W
    Gate Leakage Power = 0.330607 W
    Runtime Dynamic Power = 78.1973 W
    Runtime Dynamic Energy = 1.02065 J
    Total Runtime Energy = 1.14616 J

      Core 0:
        Area = 14.2041 mm^2
        Peak Dynamic Power = 10.6481 W
        Subthreshold Leakage Power = 4.9452 W
        Gate Leakage Power = 0.219718 W
        Runtime Dynamic Power = 78.1643 W
        Runtime Dynamic Energy = 1.02022 J
        Total Runtime Energy = 1.08763 J

          Instruction Fetch Unit:
            Area = 1.61048 mm^2
            Peak Dynamic Power = 1.36799 W
            Subthreshold Leakage Power = 0.226901 W
            Gate Leakage Power = 0.00533246 W
            Runtime Dynamic Power = 0.102416 W
            Runtime Dynamic Energy = 0.00133675 J
            Total Runtime Energy = 0.00436791 J

              Instruction Cache:
                Area = 0.970326 mm^2
                Peak Dynamic Power = 0.064624 W
                Subthreshold Leakage Power = 0.0678485 W
                Gate Leakage Power = 0.00157419 W
                Runtime Dynamic Power = 0.00701908 W
                Runtime Dynamic Energy = 9.16144e-05 J
                Total Runtime Energy = 0.000997733 J

                  Data and Tag Arrays:
                    Area = 0.25887 mm^2
                    Peak Dynamic Power = 0 W
                    Subthreshold Leakage Power = 0.0622886 W
                    Gate Leakage Power = 0.00129234 W
                    Runtime Dynamic Power = 0.00701902 W
                    Runtime Dynamic Energy = 9.16137e-05 J
                    Total Runtime Energy = 0.000921485 J

                  Miss Buffer:
                    Area = 0.262959 mm^2
                    Peak Dynamic Power = 0.0226903 W
                    Subthreshold Leakage Power = 0.00194663 W
                    Gate Leakage Power = 9.86469e-05 W
                    Runtime Dynamic Power = 1.81513e-08 W
                    Runtime Dynamic Energy = 2.36915e-10 J
                    Total Runtime Energy = 2.66956e-05 J

                  Fill Buffer:
                    Area = 0.224249 mm^2
                    Peak Dynamic Power = 0.0209669 W
                    Subthreshold Leakage Power = 0.00180662 W
                    Gate Leakage Power = 9.16038e-05 W
                    Runtime Dynamic Power = 1.66989e-08 W
                    Runtime Dynamic Energy = 2.17957e-10 J
                    Total Runtime Energy = 2.47762e-05 J

                  Prefetch Buffer:
                    Area = 0.224249 mm^2
                    Peak Dynamic Power = 0.0209669 W
                    Subthreshold Leakage Power = 0.00180662 W
                    Gate Leakage Power = 9.16038e-05 W
                    Runtime Dynamic Power = 1.66989e-08 W
                    Runtime Dynamic Energy = 2.17957e-10 J
                    Total Runtime Energy = 2.47762e-05 J

              Branch Target Buffer:
                Area = 0.229775 mm^2
                Peak Dynamic Power = 0.0323054 W
                Subthreshold Leakage Power = 0.0389956 W
                Gate Leakage Power = 0.000887392 W
                Runtime Dynamic Power = 0.00191735 W
                Runtime Dynamic Energy = 2.50256e-05 J
                Total Runtime Energy = 0.000545587 J

              Branch Predictor:
                Area = 0.364134 mm^2
                Peak Dynamic Power = 0 W
                Subthreshold Leakage Power = 0.112326 W
                Gate Leakage Power = 0.00263182 W
                Runtime Dynamic Power = 0.0326155 W
                Runtime Dynamic Energy = 0.000425704 J
                Total Runtime Energy = 0.00192615 J

                  Global Predictor:
                    Area = 0.129022 mm^2
                    Peak Dynamic Power = 0 W
                    Subthreshold Leakage Power = 0.0419609 W
                    Gate Leakage Power = 0.000962899 W
                    Runtime Dynamic Power = 0.0120085 W
                    Runtime Dynamic Energy = 0.000156738 J
                    Total Runtime Energy = 0.000716988 J

                  Local Predictor, Level 1:
                    Area = 0.0544156 mm^2
                    Peak Dynamic Power = 0 W
                    Subthreshold Leakage Power = 0.0159313 W
                    Gate Leakage Power = 0.000389269 W
                    Runtime Dynamic Power = 0.00685137 W
                    Runtime Dynamic Energy = 8.94255e-05 J
                    Total Runtime Energy = 0.000302445 J

                  Local Predictor, Level 2:
                    Area = 0.0363446 mm^2
                    Peak Dynamic Power = 0 W
                    Subthreshold Leakage Power = 0.0107581 W
                    Gate Leakage Power = 0.000267545 W
                    Runtime Dynamic Power = 0.00174701 W
                    Runtime Dynamic Energy = 2.28024e-05 J
                    Total Runtime Energy = 0.000166711 J

                  Predictor Chooser:
                    Area = 0.129022 mm^2
                    Peak Dynamic Power = 0 W
                    Subthreshold Leakage Power = 0.0419609 W
                    Gate Leakage Power = 0.000962899 W
                    Runtime Dynamic Power = 0.0120085 W
                    Runtime Dynamic Energy = 0.000156738 J
                    Total Runtime Energy = 0.000716988 J

                  RAS:
                    Area = 0.0153301 mm^2
                    Peak Dynamic Power = 0 W
                    Subthreshold Leakage Power = 0.0017144 W
                    Gate Leakage Power = 4.92127e-05 W
                    Runtime Dynamic Power = 0 W
                    Runtime Dynamic Energy = 0 J
                    Total Runtime Energy = 2.3019e-05 J

              Instruction Buffer:
                Area = 0.0215393 mm^2
                Peak Dynamic Power = 0.209215 W
                Subthreshold Leakage Power = 0.00234771 W
                Gate Leakage Power = 5.98161e-05 W
                Runtime Dynamic Power = 0.0100182 W
                Runtime Dynamic Energy = 0.000130759 J
                Total Runtime Energy = 0.000162183 J

              Instruction Opcode Decoder:
                Area = 0.0115958 mm^2
                Peak Dynamic Power = 0.354159 W
                Subthreshold Leakage Power = 0.00253168 W
                Gate Leakage Power = 8.37387e-05 W
                Runtime Dynamic Power = 0.0169588 W
                Runtime Dynamic Energy = 0.00022135 J
                Total Runtime Energy = 0.000255487 J

              Instruction Operand Decoder:
                Area = 0.00150936 mm^2
                Peak Dynamic Power = 0.353523 W
                Subthreshold Leakage Power = 0.00032028 W
                Gate Leakage Power = 1.17596e-05 W
                Runtime Dynamic Power = 0.0169283 W
                Runtime Dynamic Energy = 0.000220952 J
                Total Runtime Energy = 0.000225286 J

              Instruction Microcode Decoder:
                Area = 0.0115958 mm^2
                Peak Dynamic Power = 0.354159 W
                Subthreshold Leakage Power = 0.00253168 W
                Gate Leakage Power = 8.37387e-05 W
                Runtime Dynamic Power = 0.0169588 W
                Runtime Dynamic Energy = 0.00022135 J
                Total Runtime Energy = 0.000255487 J

          Load/Store Unit:
            Area = 1.45855 mm^2
            Peak Dynamic Power = 0.208566 W
            Subthreshold Leakage Power = 0.158229 W
            Gate Leakage Power = 0.00395834 W
            Runtime Dynamic Power = 0.0582212 W
            Runtime Dynamic Energy = 0.000759915 J
            Total Runtime Energy = 0.00287682 J

              Data Cache:
                Area = 1.33684 mm^2
                Peak Dynamic Power = 0.109285 W
                Subthreshold Leakage Power = 0.141928 W
                Gate Leakage Power = 0.00336344 W
                Runtime Dynamic Power = 0.0462614 W
                Runtime Dynamic Energy = 0.000603813 J
                Total Runtime Energy = 0.00250019 J

                  Data and Tag Arrays:
                    Area = 0.372569 mm^2
                    Peak Dynamic Power = 0 W
                    Subthreshold Leakage Power = 0.123745 W
                    Gate Leakage Power = 0.00251158 W
                    Runtime Dynamic Power = 0.0418459 W
                    Runtime Dynamic Energy = 0.000546182 J
                    Total Runtime Energy = 0.00219411 J

                  Miss Buffer:
                    Area = 0.270528 mm^2
                    Peak Dynamic Power = 0.0288322 W
                    Subthreshold Leakage Power = 0.0048041 W
                    Gate Leakage Power = 0.000224896 W
                    Runtime Dynamic Power = 0.00155463 W
                    Runtime Dynamic Energy = 2.02913e-05 J
                    Total Runtime Energy = 8.59307e-05 J

                  Fill Buffer:
                    Area = 0.231248 mm^2
                    Peak Dynamic Power = 0.0268178 W
                    Subthreshold Leakage Power = 0.00445956 W
                    Gate Leakage Power = 0.000208987 W
                    Runtime Dynamic Power = 0.0014304 W
                    Runtime Dynamic Energy = 1.86699e-05 J
                    Total Runtime Energy = 7.96047e-05 J

                  Prefetch Buffer:
                    Area = 0.231248 mm^2
                    Peak Dynamic Power = 0.0268178 W
                    Subthreshold Leakage Power = 0.00445956 W
                    Gate Leakage Power = 0.000208987 W
                    Runtime Dynamic Power = 0.000299355 W
                    Runtime Dynamic Energy = 3.90724e-06 J
                    Total Runtime Energy = 6.48421e-05 J

                  Writeback Buffer:
                    Area = 0.231248 mm^2
                    Peak Dynamic Power = 0.0268178 W
                    Subthreshold Leakage Power = 0.00445956 W
                    Gate Leakage Power = 0.000208987 W
                    Runtime Dynamic Power = 0.00113105 W
                    Runtime Dynamic Energy = 1.47627e-05 J
                    Total Runtime Energy = 7.56975e-05 J

              Load Queue:
                Area = 0.0608565 mm^2
                Peak Dynamic Power = 0.0496405 W
                Subthreshold Leakage Power = 0.00815046 W
                Gate Leakage Power = 0.000297452 W
                Runtime Dynamic Power = 0.00398662 W
                Runtime Dynamic Energy = 5.20342e-05 J
                Total Runtime Energy = 0.000162298 J

              Store Queue:
                Area = 0.0608565 mm^2
                Peak Dynamic Power = 0.0496405 W
                Subthreshold Leakage Power = 0.00815046 W
                Gate Leakage Power = 0.000297452 W
                Runtime Dynamic Power = 0.00797324 W
                Runtime Dynamic Energy = 0.000104068 J
                Total Runtime Energy = 0.000214332 J

          Memory Management Unit:
            Area = 0.331371 mm^2
            Peak Dynamic Power = 0.374721 W
            Subthreshold Leakage Power = 0.097099 W
            Gate Leakage Power = 0.00441089 W
            Runtime Dynamic Power = 0.0289225 W
            Runtime Dynamic Energy = 0.000377503 J
            Total Runtime Energy = 0.00170243 J

              Instruction TLB:
                Area = 0.131789 mm^2
                Peak Dynamic Power = 0.177834 W
                Subthreshold Leakage Power = 0.0446376 W
                Gate Leakage Power = 0.00203139 W
                Runtime Dynamic Power = 0.0102594 W
                Runtime Dynamic Energy = 0.000133908 J
                Total Runtime Energy = 0.000743041 J

              Data TLB:
                Area = 0.199582 mm^2
                Peak Dynamic Power = 0.196887 W
                Subthreshold Leakage Power = 0.0524614 W
                Gate Leakage Power = 0.00237949 W
                Runtime Dynamic Power = 0.0186631 W
                Runtime Dynamic Energy = 0.000243594 J
                Total Runtime Energy = 0.000959389 J

          Execution Unit:
            Area = 4.34618 mm^2
            Peak Dynamic Power = 4.38702 W
            Subthreshold Leakage Power = 1.21725 W
            Gate Leakage Power = 0.0508622 W
            Runtime Dynamic Power = 0.687081 W
            Runtime Dynamic Energy = 0.00896792 J
            Total Runtime Energy = 0.0255196 J

              Int Bypass Data:
                Area = 0.00243032 mm^2
                Peak Dynamic Power = 0 W
                Subthreshold Leakage Power = 0 W
                Gate Leakage Power = 0 W
                Runtime Dynamic Power = 0.0263477 W
                Runtime Dynamic Energy = 0.000343896 J
                Total Runtime Energy = 0.000343896 J

              Int Bypass Tag:
                Area = 0.000648315 mm^2
                Peak Dynamic Power = 0 W
                Subthreshold Leakage Power = 0 W
                Gate Leakage Power = 0 W
                Runtime Dynamic Power = 0.00702855 W
                Runtime Dynamic Energy = 9.17381e-05 J
                Total Runtime Energy = 9.17381e-05 J

              Mul Bypass Data:
                Area = 0.00323361 mm^2
                Peak Dynamic Power = 0 W
                Subthreshold Leakage Power = 0 W
                Gate Leakage Power = 0 W
                Runtime Dynamic Power = 3.63243e-09 W
                Runtime Dynamic Energy = 4.74112e-11 J
                Total Runtime Energy = 4.74112e-11 J

              Mul Bypass Tag:
                Area = 0.000748726 mm^2
                Peak Dynamic Power = 0 W
                Subthreshold Leakage Power = 0 W
                Gate Leakage Power = 0 W
                Runtime Dynamic Power = 8.41072e-10 W
                Runtime Dynamic Energy = 1.09778e-11 J
                Total Runtime Energy = 1.09778e-11 J

              FP Bypass Data:
                Area = 0.00382937 mm^2
                Peak Dynamic Power = 0 W
                Subthreshold Leakage Power = 0 W
                Gate Leakage Power = 0 W
                Runtime Dynamic Power = 0 W
                Runtime Dynamic Energy = 0 J
                Total Runtime Energy = 0 J

              FP Bypass Tag:
                Area = 0.000859143 mm^2
                Peak Dynamic Power = 0 W
                Subthreshold Leakage Power = 0 W
                Gate Leakage Power = 0 W
                Runtime Dynamic Power = 0 W
                Runtime Dynamic Energy = 0 J
                Total Runtime Energy = 0 J

              Register File Unit:
                Area = 0.195532 mm^2
                Peak Dynamic Power = 1.02517 W
                Subthreshold Leakage Power = 0.0212235 W
                Gate Leakage Power = 0.000562443 W
                Runtime Dynamic Power = 0.0218954 W
                Runtime Dynamic Energy = 0.000285783 J
                Total Runtime Energy = 0.000570137 J

                  Integer Register File:
                    Area = 0.130355 mm^2
                    Peak Dynamic Power = 1.00399 W
                    Subthreshold Leakage Power = 0.0106117 W
                    Gate Leakage Power = 0.000281221 W
                    Runtime Dynamic Power = 0.0218954 W
                    Runtime Dynamic Energy = 0.000285783 J
                    Total Runtime Energy = 0.00042796 J

                  FP Register File:
                    Area = 0.0651774 mm^2
                    Peak Dynamic Power = 0.021183 W
                    Subthreshold Leakage Power = 0.0106117 W
                    Gate Leakage Power = 0.000281221 W
                    Runtime Dynamic Power = 0 W
                    Runtime Dynamic Energy = 0 J
                    Total Runtime Energy = 0.000142177 J

              Instruction Scheduler:
                Area = 1.95138 mm^2
                Peak Dynamic Power = 1.87107 W
                Subthreshold Leakage Power = 0.0217879 W
                Gate Leakage Power = 0.000602413 W
                Runtime Dynamic Power = 0.18673 W
                Runtime Dynamic Energy = 0.00243724 J
                Total Runtime Energy = 0.00272948 J

                  Integer Instruction Window:
                    Area = 0.363343 mm^2
                    Peak Dynamic Power = 0.462097 W
                    Subthreshold Leakage Power = 0 W
                    Gate Leakage Power = 0 W
                    Runtime Dynamic Power = 0.0192204 W
                    Runtime Dynamic Energy = 0.000250868 J
                    Total Runtime Energy = 0.000250868 J

                  FP Instruction Window:
                    Area = 0.0387099 mm^2
                    Peak Dynamic Power = 0.0287049 W
                    Subthreshold Leakage Power = 0 W
                    Gate Leakage Power = 0 W
                    Runtime Dynamic Power = 0 W
                    Runtime Dynamic Energy = 0 J
                    Total Runtime Energy = 0 J

                  Reorder Buffer:
                    Area = 1.54933 mm^2
                    Peak Dynamic Power = 1.38027 W
                    Subthreshold Leakage Power = 0.0217879 W
                    Gate Leakage Power = 0.000602413 W
                    Runtime Dynamic Power = 0.167509 W
                    Runtime Dynamic Energy = 0.00218637 J
                    Total Runtime Energy = 0.00247861 J

              Integer ALU(s):
                Area = 0.138846 mm^2
                Peak Dynamic Power = 0.379892 W
                Subthreshold Leakage Power = 0.201977 W
                Gate Leakage Power = 0.00854828 W
                Runtime Dynamic Power = 0.12277 W
                Runtime Dynamic Energy = 0.00160242 J
                Total Runtime Energy = 0.00435024 J

              Floating Point Unit(s):
                Area = 1.8404 mm^2
                Peak Dynamic Power = 0.666531 W
                Subthreshold Leakage Power = 0.669296 W
                Gate Leakage Power = 0.0283266 W
                Runtime Dynamic Power = 0.193385 W
                Runtime Dynamic Energy = 0.00252411 J
                Total Runtime Energy = 0.0116296 J

              Multiply/Divide Unit(s):
                Area = 0.20827 mm^2
                Peak Dynamic Power = 0.444354 W
                Subthreshold Leakage Power = 0.302965 W
                Gate Leakage Power = 0.0128224 W
                Runtime Dynamic Power = 0.128924 W
                Runtime Dynamic Energy = 0.00168274 J
                Total Runtime Energy = 0.00580446 J

          Undifferentiated Core:
            Area = 3.88668 mm^2
            Peak Dynamic Power = 0 W
            Subthreshold Leakage Power = 2.82694 W
            Gate Leakage Power = 0.119645 W
            Runtime Dynamic Power = 0 W
            Runtime Dynamic Energy = 0 J
            Total Runtime Energy = 0.0384594 J

          Rename Unit:
            Area = 2.2017 mm^2
            Peak Dynamic Power = 4.30975 W
            Subthreshold Leakage Power = 0.116134 W
            Gate Leakage Power = 0.00327432 W
            Runtime Dynamic Power = 76.003 W
            Runtime Dynamic Energy = 0.992006 J
            Total Runtime Energy = 0.993565 J

              Int Front RAT:
                Area = 1.42712 mm^2
                Peak Dynamic Power = 1.97918 W
                Subthreshold Leakage Power = 0.0262301 W
                Gate Leakage Power = 0.00063006 W
                Runtime Dynamic Power = 0.452942 W
                Runtime Dynamic Energy = 0.0059119 J
                Total Runtime Energy = 0.00626248 J

              FP Front RAT:
                Area = 0.196134 mm^2
                Peak Dynamic Power = 0.462392 W
                Subthreshold Leakage Power = 0.0164236 W
                Gate Leakage Power = 0.00040475 W
                Runtime Dynamic Power = 0 W
                Runtime Dynamic Energy = 0 J
                Total Runtime Energy = 0.000219648 J

              Integer Free List:
                Area = 0.39483 mm^2
                Peak Dynamic Power = 0.0897328 W
                Subthreshold Leakage Power = 0.00699427 W
                Gate Leakage Power = 0.000164683 W
                Runtime Dynamic Power = 0.0308134 W
                Runtime Dynamic Energy = 0.000402182 J
                Total Runtime Energy = 0.000495622 J

              Int Retire RAT:
                Area = 0.0712819 mm^2
                Peak Dynamic Power = 0.0350735 W
                Subthreshold Leakage Power = 0.00181796 W
                Gate Leakage Power = 6.30899e-05 W
                Runtime Dynamic Power = 0.00366759 W
                Runtime Dynamic Energy = 4.78701e-05 J
                Total Runtime Energy = 7.24219e-05 J

              FP Retire RAT:
                Area = 0.00751656 mm^2
                Peak Dynamic Power = 0.00475521 W
                Subthreshold Leakage Power = 0.000709488 W
                Gate Leakage Power = 1.94961e-05 W
                Runtime Dynamic Power = 0 W
                Runtime Dynamic Energy = 0 J
                Total Runtime Energy = 9.51485e-06 J

              FP Free List:
                Area = 0.104811 mm^2
                Peak Dynamic Power = 0.0583279 W
                Subthreshold Leakage Power = 0.00389602 W
                Gate Leakage Power = 8.57288e-05 W
                Runtime Dynamic Power = 0 W
                Runtime Dynamic Energy = 0 J
                Total Runtime Energy = 5.19706e-05 J

              Instruction Dependency Check?:
                Area = 0 mm^2
                Peak Dynamic Power = 0.840145 W
                Subthreshold Leakage Power = 0.0300312 W
                Gate Leakage Power = 0.000953258 W
                Runtime Dynamic Power = 75.5155 W
                Runtime Dynamic Energy = 0.985644 J
                Total Runtime Energy = 0.986049 J

              FP Dependency Check?:
                Area = 0 mm^2
                Peak Dynamic Power = 0.840145 W
                Subthreshold Leakage Power = 0.0300312 W
                Gate Leakage Power = 0.000953258 W
                Runtime Dynamic Power = 0 W
                Runtime Dynamic Energy = 0 J
                Total Runtime Energy = 0.000404415 J

          Pipeline?:
            Area = 0.36911 mm^2
            Peak Dynamic Power = 0 W
            Subthreshold Leakage Power = 0.302654 W
            Gate Leakage Power = 0.0322355 W
            Runtime Dynamic Power = 1.28465 W
            Runtime Dynamic Energy = 0.0167675 J
            Total Runtime Energy = 0.0211385 J

      L2 Cache:
        Area = 13.037 mm^2
        Peak Dynamic Power = 0.142841 W
        Subthreshold Leakage Power = 4.34046 W
        Gate Leakage Power = 0.110888 W
        Runtime Dynamic Power = 0.0330953 W
        Runtime Dynamic Energy = 0.000431966 J
        Total Runtime Energy = 0.0585319 J

          Data and Tag Arrays:
            Area = 12.0488 mm^2
            Peak Dynamic Power = 0 W
            Subthreshold Leakage Power = 4.31532 W
            Gate Leakage Power = 0.109824 W
            Runtime Dynamic Power = 0.0326291 W
            Runtime Dynamic Energy = 0.000425882 J
            Total Runtime Energy = 0.0581837 J

          Miss Buffer:
            Area = 0.281957 mm^2
            Peak Dynamic Power = 0.0379821 W
            Subthreshold Leakage Power = 0.00670028 W
            Gate Leakage Power = 0.000283174 W
            Runtime Dynamic Power = 0.000165516 W
            Runtime Dynamic Energy = 2.16034e-06 J
            Total Runtime Energy = 9.33098e-05 J

          Fill Buffer:
            Area = 0.235423 mm^2
            Peak Dynamic Power = 0.0349529 W
            Subthreshold Leakage Power = 0.00614777 W
            Gate Leakage Power = 0.000260358 W
            Runtime Dynamic Power = 0.000150309 W
            Runtime Dynamic Energy = 1.96187e-06 J
            Total Runtime Energy = 8.56021e-05 J

          Prefetch Buffer:
            Area = 0.235423 mm^2
            Peak Dynamic Power = 0.0349529 W
            Subthreshold Leakage Power = 0.00614777 W
            Gate Leakage Power = 0.000260358 W
            Runtime Dynamic Power = 3.75455e-05 W
            Runtime Dynamic Energy = 4.90052e-07 J
            Total Runtime Energy = 8.41303e-05 J

          Writeback Buffer:
            Area = 0.235423 mm^2
            Peak Dynamic Power = 0.0349529 W
            Subthreshold Leakage Power = 0.00614777 W
            Gate Leakage Power = 0.000260358 W
            Runtime Dynamic Power = 0.000112764 W
            Runtime Dynamic Energy = 1.47182e-06 J
            Total Runtime Energy = 8.5112e-05 J
