warn: The `get_runtime_isa` function is deprecated. Please migrate away from using this function.
warn: The se.py script is deprecated. It will be removed in future releases of  gem5.
warn: The `get_runtime_isa` function is deprecated. Please migrate away from using this function.
Global frequency set at 1000000000000 ticks per second
src/mem/dram_interface.cc:690: warn: DRAM device capacity (8192 Mbytes) does not match the address range assigned (2048 Mbytes)
src/base/statistics.hh:279: warn: One of the stats is a legacy stat. Legacy stat is a stat that does not belong to any statistics::Group. Legacy stat is deprecated.
system.remote_gdb: Listening for connections on port 7000
gem5 Simulator System.  https://www.gem5.org
gem5 is copyrighted software; use the --copyright option for details.

gem5 version 23.0.0.1
gem5 compiled Mar 12 2026 16:38:53
gem5 started Mar 12 2026 17:26:51
gem5 executing on rockzzz, pid 2460175
command line: /home/rock/project/gem5/build/ARM/gem5.opt --outdir=/home/rock/project/gem5/runs/adaptive/v1/gapbs_bfs/latest /home/rock/project/gem5/configs/deprecated/example/se.py -n 1 --cpu-type=DerivO3CPU --caches --l2cache --mem-size=2GB --maxinsts=50000000 --param 'system.cpu[0].enableStallAdaptive=True' --param 'system.cpu[0].adaptiveWindowCycles=5000' --param 'system.cpu[0].adaptiveSwitchHysteresis=2' --param 'system.cpu[0].adaptiveMinModeWindows=2' --param 'system.cpu[0].adaptiveConservativeFetchWidth=2' --param 'system.cpu[0].adaptiveConservativeInflightCap=96' -c workloads/external/gapbs/bfs '--options=-g 20 -n 1'

**** REAL SIMULATION ****
src/sim/simulate.cc:194: info: Entering event queue @ 0.  Starting simulation...
src/sim/syscall_emul.cc:74: warn: ignoring syscall set_robust_list(...)
src/sim/syscall_emul.cc:85: warn: ignoring syscall rseq(...)
      (further warnings will be suppressed)
src/sim/mem_state.cc:443: info: Increasing stack size by one page.
src/sim/syscall_emul.cc:74: warn: ignoring syscall mprotect(...)
src/sim/mem_state.cc:443: info: Increasing stack size by one page.
Exiting @ tick 19942339500 because a thread reached the max instruction count
