warn: The `get_runtime_isa` function is deprecated. Please migrate away from using this function.
warn: The se.py script is deprecated. It will be removed in future releases of  gem5.
warn: The `get_runtime_isa` function is deprecated. Please migrate away from using this function.
Global frequency set at 1000000000000 ticks per second
src/mem/dram_interface.cc:690: warn: DRAM device capacity (8192 Mbytes) does not match the address range assigned (2048 Mbytes)
src/arch/arm/linux/se_workload.cc:73: warn: Unknown operating system; assuming Linux.
src/base/statistics.hh:279: warn: One of the stats is a legacy stat. Legacy stat is a stat that does not belong to any statistics::Group. Legacy stat is deprecated.
system.remote_gdb: Listening for connections on port 7000
gem5 Simulator System.  https://www.gem5.org
gem5 is copyrighted software; use the --copyright option for details.

gem5 version 23.0.0.1
gem5 compiled Mar 26 2026 22:27:22
gem5 started Mar 30 2026 15:36:39
gem5 executing on rockzzz, pid 1269873
command line: /home/rock/project/gem5/build/ARM/gem5.opt --outdir=/home/rock/project/gem5/runs/adaptive/v1/sweeps/week11_planA_50M/serialized_pointer_chase/w10000_h3_m2_cap64/serialized_pointer_chase/archive/2026-03-30T15_36_39-04_00 /home/rock/project/gem5/configs/deprecated/example/se.py -n 1 --cpu-type=DerivO3CPU --caches --l2cache --mem-size=2GB --maxinsts=50000000 --param 'system.cpu[0].enableStallAdaptive=True' --param 'system.cpu[0].adaptiveWindowCycles=10000' --param 'system.cpu[0].adaptiveConservativeFetchWidth=2' --param 'system.cpu[0].adaptiveConservativeInflightCap=64' --param 'system.cpu[0].adaptiveConservativeIQCap=0' --param 'system.cpu[0].adaptiveConservativeLSQCap=0' --param 'system.cpu[0].adaptiveConservativeRenameWidth=0' --param 'system.cpu[0].adaptiveConservativeDispatchWidth=0' -c workloads/serialized_pointer_chase/bin/arm/linux/serialized_pointer_chase '--options=1048576 12 1' --param 'system.cpu[0].adaptiveSwitchHysteresis=3' --param 'system.cpu[0].adaptiveMinModeWindows=2'

**** REAL SIMULATION ****
src/sim/simulate.cc:194: info: Entering event queue @ 0.  Starting simulation...
Exiting @ tick 32284358500 because a thread reached the max instruction count
