McPAT (version 0.8 of Aug, 2010) is computing the target processor...


McPAT (version 0.8 of Aug, 2010) results  (current print level is 5)
*****************************************************************************************
  Technology 40 nm
  Interconnect metal projection = conservative interconnect technology projection
  Target Clock Rate (MHz) 2000

*****************************************************************************************
  System:
    Area = 27.2411 mm^2
    Peak Dynamic Power = 10.7909 W
    Subthreshold Leakage Power = 9.28566 W
    Gate Leakage Power = 0.330607 W
    Runtime Dynamic Power = 185.958 W
    Runtime Dynamic Energy = 3.12459 J
    Total Runtime Energy = 3.28616 J

      Core 0:
        Area = 14.2041 mm^2
        Peak Dynamic Power = 10.6481 W
        Subthreshold Leakage Power = 4.9452 W
        Gate Leakage Power = 0.219718 W
        Runtime Dynamic Power = 185.958 W
        Runtime Dynamic Energy = 3.12459 J
        Total Runtime Energy = 3.21137 J

          Instruction Fetch Unit:
            Area = 1.61048 mm^2
            Peak Dynamic Power = 1.36799 W
            Subthreshold Leakage Power = 0.226901 W
            Gate Leakage Power = 0.00533246 W
            Runtime Dynamic Power = 0.37892 W
            Runtime Dynamic Energy = 0.00636687 J
            Total Runtime Energy = 0.010269 J

              Instruction Cache:
                Area = 0.970326 mm^2
                Peak Dynamic Power = 0.064624 W
                Subthreshold Leakage Power = 0.0678485 W
                Gate Leakage Power = 0.00157419 W
                Runtime Dynamic Power = 0.0263829 W
                Runtime Dynamic Energy = 0.000443303 J
                Total Runtime Energy = 0.00160979 J

                  Data and Tag Arrays:
                    Area = 0.25887 mm^2
                    Peak Dynamic Power = 0 W
                    Subthreshold Leakage Power = 0.0622886 W
                    Gate Leakage Power = 0.00129234 W
                    Runtime Dynamic Power = 0.0263828 W
                    Runtime Dynamic Energy = 0.000443302 J
                    Total Runtime Energy = 0.00151163 J

                  Miss Buffer:
                    Area = 0.262959 mm^2
                    Peak Dynamic Power = 0.0226903 W
                    Subthreshold Leakage Power = 0.00194663 W
                    Gate Leakage Power = 9.86469e-05 W
                    Runtime Dynamic Power = 2.05088e-08 W
                    Runtime Dynamic Energy = 3.44603e-10 J
                    Total Runtime Energy = 3.43664e-05 J

                  Fill Buffer:
                    Area = 0.224249 mm^2
                    Peak Dynamic Power = 0.0209669 W
                    Subthreshold Leakage Power = 0.00180662 W
                    Gate Leakage Power = 9.16038e-05 W
                    Runtime Dynamic Power = 1.88678e-08 W
                    Runtime Dynamic Energy = 3.17029e-10 J
                    Total Runtime Energy = 3.18956e-05 J

                  Prefetch Buffer:
                    Area = 0.224249 mm^2
                    Peak Dynamic Power = 0.0209669 W
                    Subthreshold Leakage Power = 0.00180662 W
                    Gate Leakage Power = 9.16038e-05 W
                    Runtime Dynamic Power = 1.88678e-08 W
                    Runtime Dynamic Energy = 3.17029e-10 J
                    Total Runtime Energy = 3.18956e-05 J

              Branch Target Buffer:
                Area = 0.229775 mm^2
                Peak Dynamic Power = 0.0323054 W
                Subthreshold Leakage Power = 0.0389956 W
                Gate Leakage Power = 0.000887392 W
                Runtime Dynamic Power = 0.00341489 W
                Runtime Dynamic Energy = 5.73793e-05 J
                Total Runtime Energy = 0.000727521 J

              Branch Predictor:
                Area = 0.364134 mm^2
                Peak Dynamic Power = 0 W
                Subthreshold Leakage Power = 0.112326 W
                Gate Leakage Power = 0.00263182 W
                Runtime Dynamic Power = 0.112728 W
                Runtime Dynamic Energy = 0.00189413 J
                Total Runtime Energy = 0.00382572 J

                  Global Predictor:
                    Area = 0.129022 mm^2
                    Peak Dynamic Power = 0 W
                    Subthreshold Leakage Power = 0.0419609 W
                    Gate Leakage Power = 0.000962899 W
                    Runtime Dynamic Power = 0.0431816 W
                    Runtime Dynamic Energy = 0.000725567 J
                    Total Runtime Energy = 0.0014468 J

                  Local Predictor, Level 1:
                    Area = 0.0544156 mm^2
                    Peak Dynamic Power = 0 W
                    Subthreshold Leakage Power = 0.0159313 W
                    Gate Leakage Power = 0.000389269 W
                    Runtime Dynamic Power = 0.0238906 W
                    Runtime Dynamic Energy = 0.000401425 J
                    Total Runtime Energy = 0.000675656 J

                  Local Predictor, Level 2:
                    Area = 0.0363446 mm^2
                    Peak Dynamic Power = 0 W
                    Subthreshold Leakage Power = 0.0107581 W
                    Gate Leakage Power = 0.000267545 W
                    Runtime Dynamic Power = 0.00247415 W
                    Runtime Dynamic Energy = 4.15723e-05 J
                    Total Runtime Energy = 0.000226832 J

                  Predictor Chooser:
                    Area = 0.129022 mm^2
                    Peak Dynamic Power = 0 W
                    Subthreshold Leakage Power = 0.0419609 W
                    Gate Leakage Power = 0.000962899 W
                    Runtime Dynamic Power = 0.0431816 W
                    Runtime Dynamic Energy = 0.000725567 J
                    Total Runtime Energy = 0.0014468 J

                  RAS:
                    Area = 0.0153301 mm^2
                    Peak Dynamic Power = 0 W
                    Subthreshold Leakage Power = 0.0017144 W
                    Gate Leakage Power = 4.92127e-05 W
                    Runtime Dynamic Power = 0 W
                    Runtime Dynamic Energy = 0 J
                    Total Runtime Energy = 2.96334e-05 J

              Instruction Buffer:
                Area = 0.0215393 mm^2
                Peak Dynamic Power = 0.209215 W
                Subthreshold Leakage Power = 0.00234771 W
                Gate Leakage Power = 5.98161e-05 W
                Runtime Dynamic Power = 0.0389103 W
                Runtime Dynamic Energy = 0.000653797 J
                Total Runtime Energy = 0.00069425 J

              Instruction Opcode Decoder:
                Area = 0.0115958 mm^2
                Peak Dynamic Power = 0.354159 W
                Subthreshold Leakage Power = 0.00253168 W
                Gate Leakage Power = 8.37387e-05 W
                Runtime Dynamic Power = 0.0658673 W
                Runtime Dynamic Energy = 0.00110675 J
                Total Runtime Energy = 0.00115069 J

              Instruction Operand Decoder:
                Area = 0.00150936 mm^2
                Peak Dynamic Power = 0.353523 W
                Subthreshold Leakage Power = 0.00032028 W
                Gate Leakage Power = 1.17596e-05 W
                Runtime Dynamic Power = 0.0657489 W
                Runtime Dynamic Energy = 0.00110476 J
                Total Runtime Energy = 0.00111034 J

              Instruction Microcode Decoder:
                Area = 0.0115958 mm^2
                Peak Dynamic Power = 0.354159 W
                Subthreshold Leakage Power = 0.00253168 W
                Gate Leakage Power = 8.37387e-05 W
                Runtime Dynamic Power = 0.0658673 W
                Runtime Dynamic Energy = 0.00110675 J
                Total Runtime Energy = 0.00115069 J

          Load/Store Unit:
            Area = 1.45855 mm^2
            Peak Dynamic Power = 0.208566 W
            Subthreshold Leakage Power = 0.158229 W
            Gate Leakage Power = 0.00395834 W
            Runtime Dynamic Power = 2.31155e-05 W
            Runtime Dynamic Energy = 3.88403e-07 J
            Total Runtime Energy = 0.00272557 J

              Data Cache:
                Area = 1.33684 mm^2
                Peak Dynamic Power = 0.109285 W
                Subthreshold Leakage Power = 0.141928 W
                Gate Leakage Power = 0.00336344 W
                Runtime Dynamic Power = 2.22071e-05 W
                Runtime Dynamic Energy = 3.73138e-07 J
                Total Runtime Energy = 0.00244166 J

                  Data and Tag Arrays:
                    Area = 0.372569 mm^2
                    Peak Dynamic Power = 0 W
                    Subthreshold Leakage Power = 0.123745 W
                    Gate Leakage Power = 0.00251158 W
                    Runtime Dynamic Power = 2.21858e-05 W
                    Runtime Dynamic Energy = 3.7278e-07 J
                    Total Runtime Energy = 0.00212183 J

                  Miss Buffer:
                    Area = 0.270528 mm^2
                    Peak Dynamic Power = 0.0288322 W
                    Subthreshold Leakage Power = 0.0048041 W
                    Gate Leakage Power = 0.000224896 W
                    Runtime Dynamic Power = 7.50172e-09 W
                    Runtime Dynamic Energy = 1.26049e-10 J
                    Total Runtime Energy = 8.45007e-05 J

                  Fill Buffer:
                    Area = 0.231248 mm^2
                    Peak Dynamic Power = 0.0268178 W
                    Subthreshold Leakage Power = 0.00445956 W
                    Gate Leakage Power = 0.000208987 W
                    Runtime Dynamic Power = 6.90229e-09 W
                    Runtime Dynamic Energy = 1.15977e-10 J
                    Total Runtime Energy = 7.84442e-05 J

                  Prefetch Buffer:
                    Area = 0.231248 mm^2
                    Peak Dynamic Power = 0.0268178 W
                    Subthreshold Leakage Power = 0.00445956 W
                    Gate Leakage Power = 0.000208987 W
                    Runtime Dynamic Power = 6.90229e-10 W
                    Runtime Dynamic Energy = 1.15977e-11 J
                    Total Runtime Energy = 7.84441e-05 J

                  Writeback Buffer:
                    Area = 0.231248 mm^2
                    Peak Dynamic Power = 0.0268178 W
                    Subthreshold Leakage Power = 0.00445956 W
                    Gate Leakage Power = 0.000208987 W
                    Runtime Dynamic Power = 6.21206e-09 W
                    Runtime Dynamic Energy = 1.04379e-10 J
                    Total Runtime Energy = 7.84442e-05 J

              Load Queue:
                Area = 0.0608565 mm^2
                Peak Dynamic Power = 0.0496405 W
                Subthreshold Leakage Power = 0.00815046 W
                Gate Leakage Power = 0.000297452 W
                Runtime Dynamic Power = 3.02818e-07 W
                Runtime Dynamic Energy = 5.08815e-09 J
                Total Runtime Energy = 0.000141953 J

              Store Queue:
                Area = 0.0608565 mm^2
                Peak Dynamic Power = 0.0496405 W
                Subthreshold Leakage Power = 0.00815046 W
                Gate Leakage Power = 0.000297452 W
                Runtime Dynamic Power = 6.05636e-07 W
                Runtime Dynamic Energy = 1.01763e-08 J
                Total Runtime Energy = 0.000141958 J

          Memory Management Unit:
            Area = 0.331371 mm^2
            Peak Dynamic Power = 0.374721 W
            Subthreshold Leakage Power = 0.097099 W
            Gate Leakage Power = 0.00441089 W
            Runtime Dynamic Power = 0.0385834 W
            Runtime Dynamic Energy = 0.000648304 J
            Total Runtime Energy = 0.00235394 J

              Instruction TLB:
                Area = 0.131789 mm^2
                Peak Dynamic Power = 0.177834 W
                Subthreshold Leakage Power = 0.0446376 W
                Gate Leakage Power = 0.00203139 W
                Runtime Dynamic Power = 0.0385633 W
                Runtime Dynamic Energy = 0.000647966 J
                Total Runtime Energy = 0.00143213 J

              Data TLB:
                Area = 0.199582 mm^2
                Peak Dynamic Power = 0.196887 W
                Subthreshold Leakage Power = 0.0524614 W
                Gate Leakage Power = 0.00237949 W
                Runtime Dynamic Power = 2.01196e-05 W
                Runtime Dynamic Energy = 3.38064e-07 J
                Total Runtime Energy = 0.000921812 J

          Execution Unit:
            Area = 4.34618 mm^2
            Peak Dynamic Power = 4.38702 W
            Subthreshold Leakage Power = 1.21725 W
            Gate Leakage Power = 0.0508622 W
            Runtime Dynamic Power = 1.22023 W
            Runtime Dynamic Energy = 0.0205032 J
            Total Runtime Energy = 0.0418108 J

              Int Bypass Data:
                Area = 0.00243032 mm^2
                Peak Dynamic Power = 0 W
                Subthreshold Leakage Power = 0 W
                Gate Leakage Power = 0 W
                Runtime Dynamic Power = 0.0962251 W
                Runtime Dynamic Energy = 0.00161684 J
                Total Runtime Energy = 0.00161684 J

              Int Bypass Tag:
                Area = 0.000648315 mm^2
                Peak Dynamic Power = 0 W
                Subthreshold Leakage Power = 0 W
                Gate Leakage Power = 0 W
                Runtime Dynamic Power = 0.0256691 W
                Runtime Dynamic Energy = 0.00043131 J
                Total Runtime Energy = 0.00043131 J

              Mul Bypass Data:
                Area = 0.00323361 mm^2
                Peak Dynamic Power = 0 W
                Subthreshold Leakage Power = 0 W
                Gate Leakage Power = 0 W
                Runtime Dynamic Power = 0.0130514 W
                Runtime Dynamic Energy = 0.000219299 J
                Total Runtime Energy = 0.000219299 J

              Mul Bypass Tag:
                Area = 0.000748726 mm^2
                Peak Dynamic Power = 0 W
                Subthreshold Leakage Power = 0 W
                Gate Leakage Power = 0 W
                Runtime Dynamic Power = 0.003022 W
                Runtime Dynamic Energy = 5.07777e-05 J
                Total Runtime Energy = 5.07777e-05 J

              FP Bypass Data:
                Area = 0.00382937 mm^2
                Peak Dynamic Power = 0 W
                Subthreshold Leakage Power = 0 W
                Gate Leakage Power = 0 W
                Runtime Dynamic Power = 0 W
                Runtime Dynamic Energy = 0 J
                Total Runtime Energy = 0 J

              FP Bypass Tag:
                Area = 0.000859143 mm^2
                Peak Dynamic Power = 0 W
                Subthreshold Leakage Power = 0 W
                Gate Leakage Power = 0 W
                Runtime Dynamic Power = 0 W
                Runtime Dynamic Energy = 0 J
                Total Runtime Energy = 0 J

              Register File Unit:
                Area = 0.195532 mm^2
                Peak Dynamic Power = 1.02517 W
                Subthreshold Leakage Power = 0.0212235 W
                Gate Leakage Power = 0.000562443 W
                Runtime Dynamic Power = 0.0642737 W
                Runtime Dynamic Energy = 0.00107997 J
                Total Runtime Energy = 0.00144603 J

                  Integer Register File:
                    Area = 0.130355 mm^2
                    Peak Dynamic Power = 1.00399 W
                    Subthreshold Leakage Power = 0.0106117 W
                    Gate Leakage Power = 0.000281221 W
                    Runtime Dynamic Power = 0.0642737 W
                    Runtime Dynamic Energy = 0.00107997 J
                    Total Runtime Energy = 0.001263 J

                  FP Register File:
                    Area = 0.0651774 mm^2
                    Peak Dynamic Power = 0.021183 W
                    Subthreshold Leakage Power = 0.0106117 W
                    Gate Leakage Power = 0.000281221 W
                    Runtime Dynamic Power = 0 W
                    Runtime Dynamic Energy = 0 J
                    Total Runtime Energy = 0.000183031 J

              Instruction Scheduler:
                Area = 1.95138 mm^2
                Peak Dynamic Power = 1.87107 W
                Subthreshold Leakage Power = 0.0217879 W
                Gate Leakage Power = 0.000602413 W
                Runtime Dynamic Power = 0.374854 W
                Runtime Dynamic Energy = 0.00629855 J
                Total Runtime Energy = 0.00667477 J

                  Integer Instruction Window:
                    Area = 0.363343 mm^2
                    Peak Dynamic Power = 0.462097 W
                    Subthreshold Leakage Power = 0 W
                    Gate Leakage Power = 0 W
                    Runtime Dynamic Power = 0.049461 W
                    Runtime Dynamic Energy = 0.000831076 J
                    Total Runtime Energy = 0.000831076 J

                  FP Instruction Window:
                    Area = 0.0387099 mm^2
                    Peak Dynamic Power = 0.0287049 W
                    Subthreshold Leakage Power = 0 W
                    Gate Leakage Power = 0 W
                    Runtime Dynamic Power = 0 W
                    Runtime Dynamic Energy = 0 J
                    Total Runtime Energy = 0 J

                  Reorder Buffer:
                    Area = 1.54933 mm^2
                    Peak Dynamic Power = 1.38027 W
                    Subthreshold Leakage Power = 0.0217879 W
                    Gate Leakage Power = 0.000602413 W
                    Runtime Dynamic Power = 0.325393 W
                    Runtime Dynamic Energy = 0.00546747 J
                    Total Runtime Energy = 0.00584369 J

              Integer ALU(s):
                Area = 0.138846 mm^2
                Peak Dynamic Power = 0.379892 W
                Subthreshold Leakage Power = 0.201977 W
                Gate Leakage Power = 0.00854828 W
                Runtime Dynamic Power = 0.277411 W
                Runtime Dynamic Energy = 0.00466124 J
                Total Runtime Energy = 0.00819863 J

              Floating Point Unit(s):
                Area = 1.8404 mm^2
                Peak Dynamic Power = 0.666531 W
                Subthreshold Leakage Power = 0.669296 W
                Gate Leakage Power = 0.0283266 W
                Runtime Dynamic Power = 0.193385 W
                Runtime Dynamic Energy = 0.00324939 J
                Total Runtime Energy = 0.0149713 J

              Multiply/Divide Unit(s):
                Area = 0.20827 mm^2
                Peak Dynamic Power = 0.444354 W
                Subthreshold Leakage Power = 0.302965 W
                Gate Leakage Power = 0.0128224 W
                Runtime Dynamic Power = 0.17234 W
                Runtime Dynamic Energy = 0.00289577 J
                Total Runtime Energy = 0.00820185 J

          Undifferentiated Core:
            Area = 3.88668 mm^2
            Peak Dynamic Power = 0 W
            Subthreshold Leakage Power = 2.82694 W
            Gate Leakage Power = 0.119645 W
            Runtime Dynamic Power = 0 W
            Runtime Dynamic Energy = 0 J
            Total Runtime Energy = 0.0495104 J

          Rename Unit:
            Area = 2.2017 mm^2
            Peak Dynamic Power = 4.30975 W
            Subthreshold Leakage Power = 0.116134 W
            Gate Leakage Power = 0.00327432 W
            Runtime Dynamic Power = 183.035 W
            Runtime Dynamic Energy = 3.07548 J
            Total Runtime Energy = 3.07749 J

              Int Front RAT:
                Area = 1.42712 mm^2
                Peak Dynamic Power = 1.97918 W
                Subthreshold Leakage Power = 0.0262301 W
                Gate Leakage Power = 0.00063006 W
                Runtime Dynamic Power = 1.0905 W
                Runtime Dynamic Energy = 0.0183233 J
                Total Runtime Energy = 0.0187746 J

              FP Front RAT:
                Area = 0.196134 mm^2
                Peak Dynamic Power = 0.462392 W
                Subthreshold Leakage Power = 0.0164236 W
                Gate Leakage Power = 0.00040475 W
                Runtime Dynamic Power = 0 W
                Runtime Dynamic Energy = 0 J
                Total Runtime Energy = 0.000282762 J

              Integer Free List:
                Area = 0.39483 mm^2
                Peak Dynamic Power = 0.0897328 W
                Subthreshold Leakage Power = 0.00699427 W
                Gate Leakage Power = 0.000164683 W
                Runtime Dynamic Power = 0.0738708 W
                Runtime Dynamic Energy = 0.00124123 J
                Total Runtime Energy = 0.00136152 J

              Int Retire RAT:
                Area = 0.0712819 mm^2
                Peak Dynamic Power = 0.0350735 W
                Subthreshold Leakage Power = 0.00181796 W
                Gate Leakage Power = 6.30899e-05 W
                Runtime Dynamic Power = 0.00869615 W
                Runtime Dynamic Energy = 0.000146119 J
                Total Runtime Energy = 0.000177725 J

              FP Retire RAT:
                Area = 0.00751656 mm^2
                Peak Dynamic Power = 0.00475521 W
                Subthreshold Leakage Power = 0.000709488 W
                Gate Leakage Power = 1.94961e-05 W
                Runtime Dynamic Power = 0 W
                Runtime Dynamic Energy = 0 J
                Total Runtime Energy = 1.22489e-05 J

              FP Free List:
                Area = 0.104811 mm^2
                Peak Dynamic Power = 0.0583279 W
                Subthreshold Leakage Power = 0.00389602 W
                Gate Leakage Power = 8.57288e-05 W
                Runtime Dynamic Power = 0 W
                Runtime Dynamic Energy = 0 J
                Total Runtime Energy = 6.6904e-05 J

              Instruction Dependency Check?:
                Area = 0 mm^2
                Peak Dynamic Power = 0.840145 W
                Subthreshold Leakage Power = 0.0300312 W
                Gate Leakage Power = 0.000953258 W
                Runtime Dynamic Power = 181.862 W
                Runtime Dynamic Energy = 3.05577 J
                Total Runtime Energy = 3.05629 J

              FP Dependency Check?:
                Area = 0 mm^2
                Peak Dynamic Power = 0.840145 W
                Subthreshold Leakage Power = 0.0300312 W
                Gate Leakage Power = 0.000953258 W
                Runtime Dynamic Power = 0 W
                Runtime Dynamic Energy = 0 J
                Total Runtime Energy = 0.000520621 J

          Pipeline?:
            Area = 0.36911 mm^2
            Peak Dynamic Power = 0 W
            Subthreshold Leakage Power = 0.302654 W
            Gate Leakage Power = 0.0322355 W
            Runtime Dynamic Power = 1.28465 W
            Runtime Dynamic Energy = 0.0215855 J
            Total Runtime Energy = 0.0272126 J

      L2 Cache:
        Area = 13.037 mm^2
        Peak Dynamic Power = 0.142841 W
        Subthreshold Leakage Power = 4.34046 W
        Gate Leakage Power = 0.110888 W
        Runtime Dynamic Power = 1.36761e-06 W
        Runtime Dynamic Energy = 2.29795e-08 J
        Total Runtime Energy = 0.0747946 J

          Data and Tag Arrays:
            Area = 12.0488 mm^2
            Peak Dynamic Power = 0 W
            Subthreshold Leakage Power = 4.31532 W
            Gate Leakage Power = 0.109824 W
            Runtime Dynamic Power = 1.33721e-06 W
            Runtime Dynamic Energy = 2.24687e-08 J
            Total Runtime Energy = 0.0743543 J

          Miss Buffer:
            Area = 0.281957 mm^2
            Peak Dynamic Power = 0.0379821 W
            Subthreshold Leakage Power = 0.00670028 W
            Gate Leakage Power = 0.000283174 W
            Runtime Dynamic Power = 1.07925e-08 W
            Runtime Dynamic Energy = 1.81343e-10 J
            Total Runtime Energy = 0.000117341 J

          Fill Buffer:
            Area = 0.235423 mm^2
            Peak Dynamic Power = 0.0349529 W
            Subthreshold Leakage Power = 0.00614777 W
            Gate Leakage Power = 0.000260358 W
            Runtime Dynamic Power = 9.801e-09 W
            Runtime Dynamic Energy = 1.64683e-10 J
            Total Runtime Energy = 0.000107674 J

          Prefetch Buffer:
            Area = 0.235423 mm^2
            Peak Dynamic Power = 0.0349529 W
            Subthreshold Leakage Power = 0.00614777 W
            Gate Leakage Power = 0.000260358 W
            Runtime Dynamic Power = 8.019e-09 W
            Runtime Dynamic Energy = 1.34741e-10 J
            Total Runtime Energy = 0.000107674 J

          Writeback Buffer:
            Area = 0.235423 mm^2
            Peak Dynamic Power = 0.0349529 W
            Subthreshold Leakage Power = 0.00614777 W
            Gate Leakage Power = 0.000260358 W
            Runtime Dynamic Power = 1.782e-09 W
            Runtime Dynamic Energy = 2.99424e-11 J
            Total Runtime Energy = 0.000107674 J
