McPAT (version 0.8 of Aug, 2010) is computing the target processor...


McPAT (version 0.8 of Aug, 2010) results  (current print level is 5)
*****************************************************************************************
  Technology 40 nm
  Interconnect metal projection = conservative interconnect technology projection
  Target Clock Rate (MHz) 2000

*****************************************************************************************
  System:
    Area = 27.2411 mm^2
    Peak Dynamic Power = 10.7909 W
    Subthreshold Leakage Power = 9.28566 W
    Gate Leakage Power = 0.330607 W
    Runtime Dynamic Power = 110.49 W
    Runtime Dynamic Energy = 3.53977 J
    Total Runtime Energy = 3.84785 J

      Core 0:
        Area = 14.2041 mm^2
        Peak Dynamic Power = 10.6481 W
        Subthreshold Leakage Power = 4.9452 W
        Gate Leakage Power = 0.219718 W
        Runtime Dynamic Power = 110.465 W
        Runtime Dynamic Energy = 3.53897 J
        Total Runtime Energy = 3.70443 J

          Instruction Fetch Unit:
            Area = 1.61048 mm^2
            Peak Dynamic Power = 1.36799 W
            Subthreshold Leakage Power = 0.226901 W
            Gate Leakage Power = 0.00533246 W
            Runtime Dynamic Power = 0.216275 W
            Runtime Dynamic Energy = 0.0069288 J
            Total Runtime Energy = 0.0143689 J

              Instruction Cache:
                Area = 0.970326 mm^2
                Peak Dynamic Power = 0.064624 W
                Subthreshold Leakage Power = 0.0678485 W
                Gate Leakage Power = 0.00157419 W
                Runtime Dynamic Power = 0.0197574 W
                Runtime Dynamic Energy = 0.000632968 J
                Total Runtime Energy = 0.00285706 J

                  Data and Tag Arrays:
                    Area = 0.25887 mm^2
                    Peak Dynamic Power = 0 W
                    Subthreshold Leakage Power = 0.0622886 W
                    Gate Leakage Power = 0.00129234 W
                    Runtime Dynamic Power = 0.0197574 W
                    Runtime Dynamic Energy = 0.000632967 J
                    Total Runtime Energy = 0.00266991 J

                  Miss Buffer:
                    Area = 0.262959 mm^2
                    Peak Dynamic Power = 0.0226903 W
                    Subthreshold Leakage Power = 0.00194663 W
                    Gate Leakage Power = 9.86469e-05 W
                    Runtime Dynamic Power = 9.41188e-09 W
                    Runtime Dynamic Energy = 3.01528e-10 J
                    Total Runtime Energy = 6.55247e-05 J

                  Fill Buffer:
                    Area = 0.224249 mm^2
                    Peak Dynamic Power = 0.0209669 W
                    Subthreshold Leakage Power = 0.00180662 W
                    Gate Leakage Power = 9.16038e-05 W
                    Runtime Dynamic Power = 8.65876e-09 W
                    Runtime Dynamic Energy = 2.774e-10 J
                    Total Runtime Energy = 6.08136e-05 J

                  Prefetch Buffer:
                    Area = 0.224249 mm^2
                    Peak Dynamic Power = 0.0209669 W
                    Subthreshold Leakage Power = 0.00180662 W
                    Gate Leakage Power = 9.16038e-05 W
                    Runtime Dynamic Power = 8.65876e-09 W
                    Runtime Dynamic Energy = 2.774e-10 J
                    Total Runtime Energy = 6.08136e-05 J

              Branch Target Buffer:
                Area = 0.229775 mm^2
                Peak Dynamic Power = 0.0323054 W
                Subthreshold Leakage Power = 0.0389956 W
                Gate Leakage Power = 0.000887392 W
                Runtime Dynamic Power = 0.00481788 W
                Runtime Dynamic Energy = 0.00015435 J
                Total Runtime Energy = 0.00143208 J

              Branch Predictor:
                Area = 0.364134 mm^2
                Peak Dynamic Power = 0 W
                Subthreshold Leakage Power = 0.112326 W
                Gate Leakage Power = 0.00263182 W
                Runtime Dynamic Power = 0.0677166 W
                Runtime Dynamic Energy = 0.00216943 J
                Total Runtime Energy = 0.00585232 J

                  Global Predictor:
                    Area = 0.129022 mm^2
                    Peak Dynamic Power = 0 W
                    Subthreshold Leakage Power = 0.0419609 W
                    Gate Leakage Power = 0.000962899 W
                    Runtime Dynamic Power = 0.0247755 W
                    Runtime Dynamic Energy = 0.000793731 J
                    Total Runtime Energy = 0.00216888 J

                  Local Predictor, Level 1:
                    Area = 0.0544156 mm^2
                    Peak Dynamic Power = 0 W
                    Subthreshold Leakage Power = 0.0159313 W
                    Gate Leakage Power = 0.000389269 W
                    Runtime Dynamic Power = 0.0142031 W
                    Runtime Dynamic Energy = 0.000455023 J
                    Total Runtime Energy = 0.000977886 J

                  Local Predictor, Level 2:
                    Area = 0.0363446 mm^2
                    Peak Dynamic Power = 0 W
                    Subthreshold Leakage Power = 0.0107581 W
                    Gate Leakage Power = 0.000267545 W
                    Runtime Dynamic Power = 0.0039494 W
                    Runtime Dynamic Energy = 0.000126527 J
                    Total Runtime Energy = 0.000479754 J

                  Predictor Chooser:
                    Area = 0.129022 mm^2
                    Peak Dynamic Power = 0 W
                    Subthreshold Leakage Power = 0.0419609 W
                    Gate Leakage Power = 0.000962899 W
                    Runtime Dynamic Power = 0.0247755 W
                    Runtime Dynamic Energy = 0.000793731 J
                    Total Runtime Energy = 0.00216888 J

                  RAS:
                    Area = 0.0153301 mm^2
                    Peak Dynamic Power = 0 W
                    Subthreshold Leakage Power = 0.0017144 W
                    Gate Leakage Power = 4.92127e-05 W
                    Runtime Dynamic Power = 1.31447e-05 W
                    Runtime Dynamic Energy = 4.21115e-07 J
                    Total Runtime Energy = 5.69218e-05 J

              Instruction Buffer:
                Area = 0.0215393 mm^2
                Peak Dynamic Power = 0.209215 W
                Subthreshold Leakage Power = 0.00234771 W
                Gate Leakage Power = 5.98161e-05 W
                Runtime Dynamic Power = 0.0204076 W
                Runtime Dynamic Energy = 0.000653797 J
                Total Runtime Energy = 0.000730927 J

              Instruction Opcode Decoder:
                Area = 0.0115958 mm^2
                Peak Dynamic Power = 0.354159 W
                Subthreshold Leakage Power = 0.00253168 W
                Gate Leakage Power = 8.37387e-05 W
                Runtime Dynamic Power = 0.034546 W
                Runtime Dynamic Energy = 0.00110675 J
                Total Runtime Energy = 0.00119054 J

              Instruction Operand Decoder:
                Area = 0.00150936 mm^2
                Peak Dynamic Power = 0.353523 W
                Subthreshold Leakage Power = 0.00032028 W
                Gate Leakage Power = 1.17596e-05 W
                Runtime Dynamic Power = 0.0344839 W
                Runtime Dynamic Energy = 0.00110476 J
                Total Runtime Energy = 0.0011154 J

              Instruction Microcode Decoder:
                Area = 0.0115958 mm^2
                Peak Dynamic Power = 0.354159 W
                Subthreshold Leakage Power = 0.00253168 W
                Gate Leakage Power = 8.37387e-05 W
                Runtime Dynamic Power = 0.034546 W
                Runtime Dynamic Energy = 0.00110675 J
                Total Runtime Energy = 0.00119054 J

          Load/Store Unit:
            Area = 1.45855 mm^2
            Peak Dynamic Power = 0.208566 W
            Subthreshold Leakage Power = 0.158229 W
            Gate Leakage Power = 0.00395834 W
            Runtime Dynamic Power = 0.0657541 W
            Runtime Dynamic Energy = 0.00210656 J
            Total Runtime Energy = 0.00730255 J

              Data Cache:
                Area = 1.33684 mm^2
                Peak Dynamic Power = 0.109285 W
                Subthreshold Leakage Power = 0.141928 W
                Gate Leakage Power = 0.00336344 W
                Runtime Dynamic Power = 0.0507142 W
                Runtime Dynamic Energy = 0.00162473 J
                Total Runtime Energy = 0.00627943 J

                  Data and Tag Arrays:
                    Area = 0.372569 mm^2
                    Peak Dynamic Power = 0 W
                    Subthreshold Leakage Power = 0.123745 W
                    Gate Leakage Power = 0.00251158 W
                    Runtime Dynamic Power = 0.0459076 W
                    Runtime Dynamic Energy = 0.00147074 J
                    Total Runtime Energy = 0.00551563 J

                  Miss Buffer:
                    Area = 0.270528 mm^2
                    Peak Dynamic Power = 0.0288322 W
                    Subthreshold Leakage Power = 0.0048041 W
                    Gate Leakage Power = 0.000224896 W
                    Runtime Dynamic Power = 0.00169235 W
                    Runtime Dynamic Energy = 5.42177e-05 J
                    Total Runtime Energy = 0.000215331 J

                  Fill Buffer:
                    Area = 0.231248 mm^2
                    Peak Dynamic Power = 0.0268178 W
                    Subthreshold Leakage Power = 0.00445956 W
                    Gate Leakage Power = 0.000208987 W
                    Runtime Dynamic Power = 0.00155712 W
                    Runtime Dynamic Energy = 4.98854e-05 J
                    Total Runtime Energy = 0.000199451 J

                  Prefetch Buffer:
                    Area = 0.231248 mm^2
                    Peak Dynamic Power = 0.0268178 W
                    Subthreshold Leakage Power = 0.00445956 W
                    Gate Leakage Power = 0.000208987 W
                    Runtime Dynamic Power = 2.58374e-05 W
                    Runtime Dynamic Energy = 8.27751e-07 J
                    Total Runtime Energy = 0.000150394 J

                  Writeback Buffer:
                    Area = 0.231248 mm^2
                    Peak Dynamic Power = 0.0268178 W
                    Subthreshold Leakage Power = 0.00445956 W
                    Gate Leakage Power = 0.000208987 W
                    Runtime Dynamic Power = 0.00153128 W
                    Runtime Dynamic Energy = 4.90576e-05 J
                    Total Runtime Energy = 0.000198624 J

              Load Queue:
                Area = 0.0608565 mm^2
                Peak Dynamic Power = 0.0496405 W
                Subthreshold Leakage Power = 0.00815046 W
                Gate Leakage Power = 0.000297452 W
                Runtime Dynamic Power = 0.00501331 W
                Runtime Dynamic Energy = 0.000160611 J
                Total Runtime Energy = 0.000431257 J

              Store Queue:
                Area = 0.0608565 mm^2
                Peak Dynamic Power = 0.0496405 W
                Subthreshold Leakage Power = 0.00815046 W
                Gate Leakage Power = 0.000297452 W
                Runtime Dynamic Power = 0.0100266 W
                Runtime Dynamic Energy = 0.000321223 J
                Total Runtime Energy = 0.000591868 J

          Memory Management Unit:
            Area = 0.331371 mm^2
            Peak Dynamic Power = 0.374721 W
            Subthreshold Leakage Power = 0.097099 W
            Gate Leakage Power = 0.00441089 W
            Runtime Dynamic Power = 0.0485544 W
            Runtime Dynamic Energy = 0.00155554 J
            Total Runtime Energy = 0.00480761 J

              Instruction TLB:
                Area = 0.131789 mm^2
                Peak Dynamic Power = 0.177834 W
                Subthreshold Leakage Power = 0.0446376 W
                Gate Leakage Power = 0.00203139 W
                Runtime Dynamic Power = 0.0288791 W
                Runtime Dynamic Energy = 0.000925198 J
                Total Runtime Energy = 0.00242033 J

              Data TLB:
                Area = 0.199582 mm^2
                Peak Dynamic Power = 0.196887 W
                Subthreshold Leakage Power = 0.0524614 W
                Gate Leakage Power = 0.00237949 W
                Runtime Dynamic Power = 0.0196754 W
                Runtime Dynamic Energy = 0.000630339 J
                Total Runtime Energy = 0.00238728 J

          Execution Unit:
            Area = 4.34618 mm^2
            Peak Dynamic Power = 4.38702 W
            Subthreshold Leakage Power = 1.21725 W
            Gate Leakage Power = 0.0508622 W
            Runtime Dynamic Power = 0.836044 W
            Runtime Dynamic Energy = 0.0267843 J
            Total Runtime Energy = 0.0674107 J

              Int Bypass Data:
                Area = 0.00243032 mm^2
                Peak Dynamic Power = 0 W
                Subthreshold Leakage Power = 0 W
                Gate Leakage Power = 0 W
                Runtime Dynamic Power = 0.0504924 W
                Runtime Dynamic Energy = 0.00161762 J
                Total Runtime Energy = 0.00161762 J

              Int Bypass Tag:
                Area = 0.000648315 mm^2
                Peak Dynamic Power = 0 W
                Subthreshold Leakage Power = 0 W
                Gate Leakage Power = 0 W
                Runtime Dynamic Power = 0.0134694 W
                Runtime Dynamic Energy = 0.000431519 J
                Total Runtime Energy = 0.000431519 J

              Mul Bypass Data:
                Area = 0.00323361 mm^2
                Peak Dynamic Power = 0 W
                Subthreshold Leakage Power = 0 W
                Gate Leakage Power = 0 W
                Runtime Dynamic Power = 0 W
                Runtime Dynamic Energy = 0 J
                Total Runtime Energy = 0 J

              Mul Bypass Tag:
                Area = 0.000748726 mm^2
                Peak Dynamic Power = 0 W
                Subthreshold Leakage Power = 0 W
                Gate Leakage Power = 0 W
                Runtime Dynamic Power = 0 W
                Runtime Dynamic Energy = 0 J
                Total Runtime Energy = 0 J

              FP Bypass Data:
                Area = 0.00382937 mm^2
                Peak Dynamic Power = 0 W
                Subthreshold Leakage Power = 0 W
                Gate Leakage Power = 0 W
                Runtime Dynamic Power = 0 W
                Runtime Dynamic Energy = 0 J
                Total Runtime Energy = 0 J

              FP Bypass Tag:
                Area = 0.000859143 mm^2
                Peak Dynamic Power = 0 W
                Subthreshold Leakage Power = 0 W
                Gate Leakage Power = 0 W
                Runtime Dynamic Power = 0 W
                Runtime Dynamic Energy = 0 J
                Total Runtime Energy = 0 J

              Register File Unit:
                Area = 0.195532 mm^2
                Peak Dynamic Power = 1.02517 W
                Subthreshold Leakage Power = 0.0212235 W
                Gate Leakage Power = 0.000562443 W
                Runtime Dynamic Power = 0.0410422 W
                Runtime Dynamic Energy = 0.00131487 J
                Total Runtime Energy = 0.00201282 J

                  Integer Register File:
                    Area = 0.130355 mm^2
                    Peak Dynamic Power = 1.00399 W
                    Subthreshold Leakage Power = 0.0106117 W
                    Gate Leakage Power = 0.000281221 W
                    Runtime Dynamic Power = 0.0410422 W
                    Runtime Dynamic Energy = 0.00131487 J
                    Total Runtime Energy = 0.00166385 J

                  FP Register File:
                    Area = 0.0651774 mm^2
                    Peak Dynamic Power = 0.021183 W
                    Subthreshold Leakage Power = 0.0106117 W
                    Gate Leakage Power = 0.000281221 W
                    Runtime Dynamic Power = 0 W
                    Runtime Dynamic Energy = 0 J
                    Total Runtime Energy = 0.000348977 J

              Instruction Scheduler:
                Area = 1.95138 mm^2
                Peak Dynamic Power = 1.87107 W
                Subthreshold Leakage Power = 0.0217879 W
                Gate Leakage Power = 0.000602413 W
                Runtime Dynamic Power = 0.232528 W
                Runtime Dynamic Energy = 0.00744948 J
                Total Runtime Energy = 0.0081668 J

                  Integer Instruction Window:
                    Area = 0.363343 mm^2
                    Peak Dynamic Power = 0.462097 W
                    Subthreshold Leakage Power = 0 W
                    Gate Leakage Power = 0 W
                    Runtime Dynamic Power = 0.0299136 W
                    Runtime Dynamic Energy = 0.00095834 J
                    Total Runtime Energy = 0.00095834 J

                  FP Instruction Window:
                    Area = 0.0387099 mm^2
                    Peak Dynamic Power = 0.0287049 W
                    Subthreshold Leakage Power = 0 W
                    Gate Leakage Power = 0 W
                    Runtime Dynamic Power = 0 W
                    Runtime Dynamic Energy = 0 J
                    Total Runtime Energy = 0 J

                  Reorder Buffer:
                    Area = 1.54933 mm^2
                    Peak Dynamic Power = 1.38027 W
                    Subthreshold Leakage Power = 0.0217879 W
                    Gate Leakage Power = 0.000602413 W
                    Runtime Dynamic Power = 0.202614 W
                    Runtime Dynamic Energy = 0.00649114 J
                    Total Runtime Energy = 0.00720846 J

              Integer ALU(s):
                Area = 0.138846 mm^2
                Peak Dynamic Power = 0.379892 W
                Subthreshold Leakage Power = 0.201977 W
                Gate Leakage Power = 0.00854828 W
                Runtime Dynamic Power = 0.176203 W
                Runtime Dynamic Energy = 0.00564501 J
                Total Runtime Energy = 0.0123896 J

              Floating Point Unit(s):
                Area = 1.8404 mm^2
                Peak Dynamic Power = 0.666531 W
                Subthreshold Leakage Power = 0.669296 W
                Gate Leakage Power = 0.0283266 W
                Runtime Dynamic Power = 0.193385 W
                Runtime Dynamic Energy = 0.00619548 J
                Total Runtime Energy = 0.0285452 J

              Multiply/Divide Unit(s):
                Area = 0.20827 mm^2
                Peak Dynamic Power = 0.444354 W
                Subthreshold Leakage Power = 0.302965 W
                Gate Leakage Power = 0.0128224 W
                Runtime Dynamic Power = 0.128924 W
                Runtime Dynamic Energy = 0.00413032 J
                Total Runtime Energy = 0.0142472 J

          Undifferentiated Core:
            Area = 3.88668 mm^2
            Peak Dynamic Power = 0 W
            Subthreshold Leakage Power = 2.82694 W
            Gate Leakage Power = 0.119645 W
            Runtime Dynamic Power = 0 W
            Runtime Dynamic Energy = 0 J
            Total Runtime Energy = 0.0943995 J

          Rename Unit:
            Area = 2.2017 mm^2
            Peak Dynamic Power = 4.30975 W
            Subthreshold Leakage Power = 0.116134 W
            Gate Leakage Power = 0.00327432 W
            Runtime Dynamic Power = 108.014 W
            Runtime Dynamic Energy = 3.46044 J
            Total Runtime Energy = 3.46426 J

              Int Front RAT:
                Area = 1.42712 mm^2
                Peak Dynamic Power = 1.97918 W
                Subthreshold Leakage Power = 0.0262301 W
                Gate Leakage Power = 0.00063006 W
                Runtime Dynamic Power = 0.643712 W
                Runtime Dynamic Energy = 0.0206226 J
                Total Runtime Energy = 0.0214831 J

              FP Front RAT:
                Area = 0.196134 mm^2
                Peak Dynamic Power = 0.462392 W
                Subthreshold Leakage Power = 0.0164236 W
                Gate Leakage Power = 0.00040475 W
                Runtime Dynamic Power = 0 W
                Runtime Dynamic Energy = 0 J
                Total Runtime Energy = 0.000539131 J

              Integer Free List:
                Area = 0.39483 mm^2
                Peak Dynamic Power = 0.0897328 W
                Subthreshold Leakage Power = 0.00699427 W
                Gate Leakage Power = 0.000164683 W
                Runtime Dynamic Power = 0.0437913 W
                Runtime Dynamic Energy = 0.00140294 J
                Total Runtime Energy = 0.00163229 J

              Int Retire RAT:
                Area = 0.0712819 mm^2
                Peak Dynamic Power = 0.0350735 W
                Subthreshold Leakage Power = 0.00181796 W
                Gate Leakage Power = 6.30899e-05 W
                Runtime Dynamic Power = 0.00521229 W
                Runtime Dynamic Energy = 0.000166986 J
                Total Runtime Energy = 0.000227249 J

              FP Retire RAT:
                Area = 0.00751656 mm^2
                Peak Dynamic Power = 0.00475521 W
                Subthreshold Leakage Power = 0.000709488 W
                Gate Leakage Power = 1.94961e-05 W
                Runtime Dynamic Power = 0 W
                Runtime Dynamic Energy = 0 J
                Total Runtime Energy = 2.33544e-05 J

              FP Free List:
                Area = 0.104811 mm^2
                Peak Dynamic Power = 0.0583279 W
                Subthreshold Leakage Power = 0.00389602 W
                Gate Leakage Power = 8.57288e-05 W
                Runtime Dynamic Power = 0 W
                Runtime Dynamic Energy = 0 J
                Total Runtime Energy = 0.000127563 J

              Instruction Dependency Check?:
                Area = 0 mm^2
                Peak Dynamic Power = 0.840145 W
                Subthreshold Leakage Power = 0.0300312 W
                Gate Leakage Power = 0.000953258 W
                Runtime Dynamic Power = 107.321 W
                Runtime Dynamic Energy = 3.43824 J
                Total Runtime Energy = 3.43924 J

              FP Dependency Check?:
                Area = 0 mm^2
                Peak Dynamic Power = 0.840145 W
                Subthreshold Leakage Power = 0.0300312 W
                Gate Leakage Power = 0.000953258 W
                Runtime Dynamic Power = 0 W
                Runtime Dynamic Energy = 0 J
                Total Runtime Energy = 0.000992647 J

          Pipeline?:
            Area = 0.36911 mm^2
            Peak Dynamic Power = 0 W
            Subthreshold Leakage Power = 0.302654 W
            Gate Leakage Power = 0.0322355 W
            Runtime Dynamic Power = 1.28465 W
            Runtime Dynamic Energy = 0.0411563 J
            Total Runtime Energy = 0.0518851 J

      L2 Cache:
        Area = 13.037 mm^2
        Peak Dynamic Power = 0.142841 W
        Subthreshold Leakage Power = 4.34046 W
        Gate Leakage Power = 0.110888 W
        Runtime Dynamic Power = 0.0250537 W
        Runtime Dynamic Energy = 0.000802646 J
        Total Runtime Energy = 0.14341 J

          Data and Tag Arrays:
            Area = 12.0488 mm^2
            Peak Dynamic Power = 0 W
            Subthreshold Leakage Power = 4.31532 W
            Gate Leakage Power = 0.109824 W
            Runtime Dynamic Power = 0.0245134 W
            Runtime Dynamic Energy = 0.000785333 J
            Total Runtime Energy = 0.142553 J

          Miss Buffer:
            Area = 0.281957 mm^2
            Peak Dynamic Power = 0.0379821 W
            Subthreshold Leakage Power = 0.00670028 W
            Gate Leakage Power = 0.000283174 W
            Runtime Dynamic Power = 0.000191881 W
            Runtime Dynamic Energy = 6.14729e-06 J
            Total Runtime Energy = 0.000229876 J

          Fill Buffer:
            Area = 0.235423 mm^2
            Peak Dynamic Power = 0.0349529 W
            Subthreshold Leakage Power = 0.00614777 W
            Gate Leakage Power = 0.000260358 W
            Runtime Dynamic Power = 0.000174253 W
            Runtime Dynamic Energy = 5.58253e-06 J
            Total Runtime Energy = 0.00021088 J

          Prefetch Buffer:
            Area = 0.235423 mm^2
            Peak Dynamic Power = 0.0349529 W
            Subthreshold Leakage Power = 0.00614777 W
            Gate Leakage Power = 0.000260358 W
            Runtime Dynamic Power = 2.11229e-05 W
            Runtime Dynamic Energy = 6.76713e-07 J
            Total Runtime Energy = 0.000205974 J

          Writeback Buffer:
            Area = 0.235423 mm^2
            Peak Dynamic Power = 0.0349529 W
            Subthreshold Leakage Power = 0.00614777 W
            Gate Leakage Power = 0.000260358 W
            Runtime Dynamic Power = 0.00015313 W
            Runtime Dynamic Energy = 4.90582e-06 J
            Total Runtime Energy = 0.000210203 J
