warn: The `get_runtime_isa` function is deprecated. Please migrate away from using this function.
warn: The se.py script is deprecated. It will be removed in future releases of  gem5.
warn: The `get_runtime_isa` function is deprecated. Please migrate away from using this function.
Global frequency set at 1000000000000 ticks per second
src/mem/dram_interface.cc:690: warn: DRAM device capacity (8192 Mbytes) does not match the address range assigned (2048 Mbytes)
src/base/statistics.hh:279: warn: One of the stats is a legacy stat. Legacy stat is a stat that does not belong to any statistics::Group. Legacy stat is deprecated.
src/base/remote_gdb.cc:418: warn: Sockets disabled, not accepting gdb connections
gem5 Simulator System.  https://www.gem5.org
gem5 is copyrighted software; use the --copyright option for details.

gem5 version 23.0.0.1
gem5 compiled Mar  8 2026 21:17:17
gem5 started Mar 11 2026 20:28:59
gem5 executing on rockzzz, pid 2207144
command line: /home/rock/project/gem5/build/ARM/gem5.opt --outdir=/home/rock/project/gem5/runs/baseline/hello_manual/latest /home/rock/project/gem5/configs/deprecated/example/se.py -n 1 --cpu-type=DerivO3CPU --caches --l2cache --mem-size=2GB --maxinsts=50000000 -c tests/test-progs/hello/bin/arm/linux/hello

info: Standard input is not a terminal, disabling listeners.
**** REAL SIMULATION ****
src/sim/simulate.cc:194: info: Entering event queue @ 0.  Starting simulation...
src/arch/arm/regs/misc.cc:527: warn: CP14 unimplemented crn[14], opc1[7], crm[15], opc2[7]
Hello world!
Exiting @ tick 17764000 because exiting with last active thread context
Simulated exit code not 0! Exit code is 13
