warn: The `get_runtime_isa` function is deprecated. Please migrate away from using this function.
warn: The se.py script is deprecated. It will be removed in future releases of  gem5.
warn: The `get_runtime_isa` function is deprecated. Please migrate away from using this function.
Global frequency set at 1000000000000 ticks per second
src/mem/dram_interface.cc:690: warn: DRAM device capacity (8192 Mbytes) does not match the address range assigned (2048 Mbytes)
src/arch/arm/linux/se_workload.cc:73: warn: Unknown operating system; assuming Linux.
src/base/statistics.hh:279: warn: One of the stats is a legacy stat. Legacy stat is a stat that does not belong to any statistics::Group. Legacy stat is deprecated.
system.remote_gdb: Listening for connections on port 7000
gem5 Simulator System.  https://www.gem5.org
gem5 is copyrighted software; use the --copyright option for details.

gem5 version 23.0.0.1
gem5 compiled Mar  8 2026 21:17:17
gem5 started Mar 11 2026 22:49:12
gem5 executing on rockzzz, pid 2216785
command line: /home/rock/project/gem5/build/ARM/gem5.opt --outdir=/home/rock/project/gem5/runs/baseline/phase_scan_mix/latest /home/rock/project/gem5/configs/deprecated/example/se.py -n 1 --cpu-type=DerivO3CPU --caches --l2cache --mem-size=2GB --maxinsts=50000000 -c workloads/phase_scan_mix/bin/arm/linux/phase_scan_mix '--options=524288 24 1'

**** REAL SIMULATION ****
src/sim/simulate.cc:194: info: Entering event queue @ 0.  Starting simulation...
Exiting @ tick 53578800500 because a thread reached the max instruction count
